192
1 12.414492 0.000000 0.000000 0.000000 12.414492 0.000000 0.000000 0.000000 12.414492
O1 9.858429 7.293687 5.971939
O2 9.236043 -1.770774 -15.594538
O3 -5.695096 -5.761325 9.674487
O4 10.276944 8.161770 9.648946
O5 7.735796 8.264202 2.717599
O6 -0.093143 8.701747 0.826481
O7 -2.952083 0.374916 -1.312323
O8 -9.523676 -7.532929 -9.525121
O9 13.301763 -7.856469 -7.728130
O10 -4.398558 0.151685 -10.789154
O11 -5.815852 5.981016 -9.019604
O12 -0.416158 -7.281973 -0.484856
O13 12.362431 -8.852326 -3.709016
O14 -7.181544 -1.518928 -1.235364
O15 2.710470 15.147198 11.120589
O16 1.643945 -6.115072 -14.685644
O17 6.042705 4.781211 13.319172
O18 -1.226112 12.062545 -4.552592
O19 -3.906078 -2.684123 4.958912
O20 -1.212793 2.485248 -0.759564
O21 -4.988354 -1.513901 -5.182051
O22 5.419412 8.796288 5.168386
O23 -10.305512 -7.659756 -11.894529
O24 1.262022 -0.634501 1.488311
O25 5.758755 3.992191 7.150795
O26 -6.991332 0.775689 1.746661
O27 -4.913469 5.940448 -5.366295
O28 -8.214892 6.435881 -0.090447
O29 2.880668 -10.960680 6.895502
O30 -5.598257 0.707521 -1.689850
O31 -3.956392 1.543494 -7.400680
O32 8.694764 -5.163761 -0.687843
O33 0.197664 2.010382 5.334087
O34 -1.544062 -6.752093 3.945665
O35 -0.914829 -6.091122 -4.471511
O36 -3.629079 4.179926 3.798494
O37 -6.282010 0.799640 8.145823
O38 -8.714625 -5.185495 -3.458321
O39 9.647488 -9.712729 1.584853
O40 -0.481834 10.928781 5.200995
O41 17.607050 -9.996158 -0.135494
O42 12.842705 -3.776479 4.019309
O43 -6.811375 -3.279875 8.172584
O44 1.689517 12.070190 4.022389
O45 -8.194193 -5.971968 4.521366
O46 -2.369735 11.726978 -9.029086
O47 13.402717 -11.766674 -0.857775
O48 4.564915 -3.943326 2.287693
O49 -2.124643 14.547651 -5.200617
O50 13.783735 -3.916842 -4.789932
O51 -8.398084 11.421019 -3.837805
O52 -4.443747 -2.878492 0.513235
O53 3.028769 5.674926 -5.719193
O54 -8.593968 -1.451540 1.318165
O55 2.502334 -9.177062 -3.874478
O56 -4.209404 3.365174 -3.480047
O57 -2.129811 6.839030 1.542142
O58 -11.882598 -3.500246 -1.822908
O59 5.590890 1.722264 4.267546
O60 4.273937 -1.159997 4.993651
O61 -14.355219 -1.594077 0.665568
O62 -12.485418 1.931641 2.764488
O63 -4.141552 -8.190694 -0.484128
O64 1.098086 -1.164645 -3.067004
H1 10.407311 7.235401 6.778063
H2 9.908867 8.223288 5.873916
H3 9.491124 -2.566588 -15.142904
H4 9.331788 -1.034314 -14.893968
H5 -5.164225 -5.493433 10.471046
H6 -6.450100 -5.253596 9.942607
H7 11.242528 8.298639 9.810255
H8 9.986266 7.769456 10.472094
H9 7.234053 7.457868 2.973508
H10 8.643303 7.937513 2.357061
H11 0.265354 8.737948 -0.158620
H12 -0.705070 9.465715 0.854695
H13 -2.356430 1.200841 -1.278111
H14 -2.625124 -0.245142 -0.552901
H15 -10.304312 -7.801091 -8.979218
H16 -9.706229 -7.975024 -10.443278
H17 13.826518 -7.474227 -7.005053
H18 13.046237 -8.847278 -7.505569
H19 -5.341061 0.358120 -10.907693
H20 -4.412184 -0.314981 -9.936469
H21 -5.048891 5.374914 -8.729396
H22 -6.144621 5.465673 -9.798977
H23 -1.036661 -6.754231 0.120370
H24 -0.815814 -8.196537 -0.768591
H25 11.800273 -9.402439 -4.236802
H26 13.293585 -9.011664 -3.864114
H27 -6.636187 -0.628498 -1.344466
H28 -7.557822 -1.343331 -2.196182
H29 3.631132 15.042439 11.559438
H30 2.873049 15.474027 10.137036
H31 0.887699 -6.582886 -14.375515
H32 2.298582 -6.694847 -15.105490
H33 5.545059 5.415107 12.811225
H34 5.660631 3.867456 12.966717
H35 -1.030004 11.721611 -5.457500
H36 -1.925371 11.372361 -4.157732
H37 -4.484081 -3.205709 4.317327
H38 -3.433142 -2.034171 4.473530
H39 -0.319470 2.013326 -0.810370
H40 -1.567454 2.396480 0.177271
H41 -4.247225 -1.733427 -4.596179
H42 -4.783200 -1.822649 -6.032197
H43 4.885204 7.956162 4.965830
H44 5.513536 8.709618 6.148947
H45 -10.178057 -8.411648 -12.565953
H46 -11.277326 -7.492838 -11.936217
H47 2.173096 -1.090588 1.255161
H48 0.712030 -1.440790 1.391397
H49 6.379929 4.710403 6.858935
H50 4.912390 4.469752 7.114645
H51 -7.322908 -0.194062 1.751547
H52 -6.998135 1.090769 2.686015
H53 -3.976510 6.024180 -5.329670
H54 -5.225586 6.487384 -4.568372
H55 -9.178588 6.222036 -0.020810
H56 -8.036802 6.716816 -0.995843
H57 3.079292 -11.938303 6.778590
H58 2.331341 -10.672337 6.166563
H59 -4.529162 0.524546 -1.617145
H60 -5.812866 1.120685 -2.546006
H61 -3.762148 2.466456 -7.824765
H62 -3.655191 1.647197 -6.431714
H63 9.182006 -5.560027 0.093695
H64 8.448101 -4.295200 -0.252039
H65 -0.726322 1.888433 5.811096
H66 0.042541 1.779058 4.388102
H67 -1.889778 -6.116644 4.690390
H68 -0.643529 -7.010431 4.280649
H69 -0.581328 -7.034396 -4.275716
H70 -1.440183 -5.864415 -3.665548
H71 -2.851514 4.634722 4.177805
H72 -3.294449 3.842686 2.912307
H73 -6.326047 1.730073 7.694841
H74 -5.670285 0.307307 7.560757
H75 -9.575818 -4.788762 -3.670579
H76 -7.958097 -4.597462 -3.753718
H77 9.211621 -9.144844 0.849557
H78 9.068336 -10.563949 1.829009
H79 0.279651 11.400017 4.690853
H80 -0.225403 10.018638 4.802495
H81 17.479427 -10.663519 0.572852
H82 18.412669 -10.190216 -0.547646
H83 12.849870 -3.709487 2.983312
H84 13.734789 -4.112354 4.178162
H85 -7.571196 -2.655193 8.032852
H86 -6.023502 -2.657112 7.799781
H87 2.627293 11.835960 4.295255
H88 1.603072 12.225779 3.064147
H89 -8.702846 -6.518294 3.832113
H90 -7.273856 -6.325045 4.465945
H91 -1.806167 11.395291 -8.257012
H92 -2.611203 12.609975 -8.667008
H93 14.058360 -11.024512 -1.237918
H94 13.757295 -12.076977 -0.012610
H95 4.666178 -4.399668 3.140382
H96 4.714742 -4.602014 1.530720
H97 -2.164792 13.637559 -4.860850
H98 -2.750678 14.927538 -4.578681
H99 13.493763 -2.989224 -4.750628
H100 13.015314 -4.510136 -4.724728
H101 -9.322139 11.738729 -3.527354
H102 -7.802826 12.243127 -4.050990
H103 -4.649918 -3.208971 1.448802
H104 -5.219816 -2.639988 0.066965
H105 3.382426 6.216111 -5.006946
H106 3.401357 5.948210 -6.556809
H107 -8.354831 -2.341429 1.716834
H108 -8.289670 -1.607344 0.430378
H109 2.657414 -10.021221 -4.256162
H110 2.846594 -8.558201 -4.465178
H111 -4.759841 4.089249 -3.737042
H112 -4.416993 3.155559 -2.537773
H113 -1.708672 6.456325 2.336773
H114 -1.613064 7.585420 1.128602
H115 -11.184121 -4.109622 -2.145141
H116 -11.841885 -2.592333 -2.229342
H117 6.522759 1.778083 4.640814
H118 5.065706 2.327036 4.748761
H119 4.471206 -2.141149 4.917086
H120 5.145169 -0.757208 4.736542
H121 -15.355687 -1.663976 0.511155
H122 -14.313717 -1.109246 1.541219
H123 -12.918442 1.451538 2.023675
H124 -11.837120 2.549359 2.399494
H125 -4.061290 -7.305433 -0.961834
H126 -5.040371 -8.192477 -0.044915
H127 0.258595 -0.848089 -3.562892
H128 0.893089 -0.624265 -2.227379
