192
1 12.414492 0.000000 0.000000 0.000000 12.414492 0.000000 0.000000 0.000000 12.414492
O1 6.922065 12.692856 11.762325
O2 1.262587 -6.269904 -13.206379
O3 -1.708112 -7.501915 6.039744
O4 -8.119383 1.841794 -3.375689
O5 -2.883716 -5.696411 2.223187
O6 8.152294 2.101335 -9.985171
O7 -8.744611 -10.990582 4.784408
O8 0.222805 5.545779 -4.268908
O9 0.053580 -2.170614 10.627018
O10 3.455887 7.460287 -7.832516
O11 -9.111246 6.473793 -2.503285
O12 -12.934225 0.302587 -2.748563
O13 -3.803171 10.477791 -4.401385
O14 4.727162 -3.994197 -4.342955
O15 1.543600 2.276844 -2.987678
O16 1.355264 4.274920 17.752361
O17 5.631465 2.204882 6.744789
O18 -10.589262 0.109941 -6.144230
O19 -5.609441 -13.669443 1.635801
O20 9.545764 -12.392923 -1.364678
O21 -8.465382 -7.909492 0.014272
O22 6.664003 5.497150 3.580279
O23 2.874880 9.614796 2.837989
O24 -0.152300 -4.995854 1.212158
O25 10.546146 -2.543759 0.233915
O26 0.748990 9.950705 5.887721
O27 1.654170 3.453665 -0.524512
O28 -7.125918 -8.020667 -2.121577
O29 -1.266348 11.099489 -5.115019
O30 2.877318 17.173054 -4.612274
O31 4.170473 -6.426657 2.627011
O32 8.793597 8.855757 10.444428
O33 -0.006697 -9.960001 6.557999
O34 -4.279467 -8.807581 -7.173531
O35 2.032258 7.945344 -5.303678
O36 -2.435155 -9.599417 -0.902779
O37 7.303548 -5.499132 1.119695
O38 -2.981390 -2.066755 2.658523
O39 0.259524 -1.846646 2.973177
O40 -0.360129 2.583011 13.511060
O41 -9.016033 0.256536 0.945410
O42 5.486048 2.003392 0.695544
O43 8.242043 1.724240 -5.247213
O44 -3.821099 5.534703 -0.766908
O45 4.753765 -1.011201 3.473322
O46 2.721373 -1.857968 -0.860191
O47 -1.611473 -5.425354 -1.826575
O48 3.481382 -4.520793 -11.805306
O49 -1.847584 -8.197515 -9.558573
O50 -3.572992 8.287313 -8.167129
O51 -5.974290 5.423234 6.811778
O52 -14.001404 7.883651 -6.366993
O53 0.372450 7.444106 -8.322974
O54 4.860204 -0.506242 -2.128386
O55 2.922915 -8.856714 3.184745
O56 6.019301 8.062251 -7.112594
O57 -2.715290 3.271644 -3.624618
O58 -7.675113 -1.359098 7.832090
O59 -3.787000 0.092215 3.941041
O60 6.555355 -5.696083 8.973657
O61 13.697386 0.614603 2.449122
O62 10.347546 0.938522 -6.506380
O63 -5.860229 -3.398545 -0.318890
O64 7.036565 -1.091059 6.029830
H1 6.329839 13.467379 11.920842
H2 6.283990 12.169260 11.218250
H3 2.037551 -5.852214 -13.613454
H4 1.102193 -5.799792 -12.363204
H5 -0.938252 -8.075846 6.352659
H6 -1.272841 -6.563379 6.062961
H7 -7.758958 2.697315 -2.848702
H8 -7.926712 1.093780 -2.856045
H9 -2.092302 -5.437341 1.725654
H10 -3.678652 -5.489505 1.711670
H11 8.494860 2.810925 -9.416052
H12 7.363843 2.462419 -10.434709
H13 -8.196004 -10.696644 5.566160
H14 -9.511993 -11.539739 5.112779
H15 0.952446 5.095178 -3.718561
H16 -0.415768 6.001350 -3.705053
H17 0.934183 -2.231394 11.131833
H18 -0.525130 -2.568307 11.334802
H19 4.371306 7.746912 -7.592409
H20 2.853423 7.526553 -7.053414
H21 -8.736347 7.327145 -2.871819
H22 -8.275503 5.831350 -2.571908
H23 -12.704958 -0.537743 -2.270853
H24 -13.830823 0.598869 -2.517331
H25 -4.191926 10.704158 -5.266459
H26 -3.878668 11.274667 -3.930420
H27 3.913509 -4.351868 -4.719835
H28 5.385597 -4.719220 -4.104621
H29 2.374639 1.778621 -3.015446
H30 0.833441 1.598791 -2.938195
H31 1.802523 4.080059 16.899420
H32 2.083979 4.425935 18.416537
H33 6.459405 1.691835 6.897986
H34 5.088017 1.979600 7.478457
H35 -11.255416 0.775327 -6.187384
H36 -10.904201 -0.701338 -6.591564
H37 -5.378082 -12.837060 1.064951
H38 -4.829221 -13.951352 2.151581
H39 8.493426 -12.373577 -1.011895
H40 9.964756 -13.053399 -0.808518
H41 -9.352128 -8.427179 0.002273
H42 -8.312595 -7.320315 0.777193
H43 5.663212 5.386464 3.434346
H44 6.983206 4.719205 4.108865
H45 2.871884 8.818941 3.413758
H46 3.718574 10.118224 3.036123
H47 -0.531279 -4.281792 0.726037
H48 -0.075297 -4.790876 2.183202
H49 10.115468 -2.410441 1.144468
H50 10.012396 -3.003089 -0.470229
H51 -0.024456 10.440785 6.281825
H52 0.470109 9.915916 4.941404
H53 1.758254 2.912833 -1.386327
H54 1.420733 4.408947 -0.777771
H55 -6.262837 -7.596031 -2.097242
H56 -7.602052 -7.888476 -1.182883
H57 -2.323420 10.895598 -4.966416
H58 -0.951587 11.656093 -4.300895
H59 2.946976 18.117822 -4.426921
H60 3.538272 16.698936 -4.131390
H61 3.761520 -5.567450 2.473486
H62 3.542231 -7.147484 2.945505
H63 9.580045 8.235160 10.300063
H64 8.863819 9.343655 9.633476
H65 0.578538 -9.381066 6.003639
H66 0.322405 -9.866207 7.490387
H67 -3.326004 -8.640865 -7.119125
H68 -4.505613 -9.593050 -6.581148
H69 1.411062 8.603058 -5.827125
H70 1.531913 7.236942 -4.851310
H71 -2.711856 -10.522707 -1.058889
H72 -1.955791 -9.631862 0.009803
H73 6.882505 -4.677666 0.730722
H74 6.499784 -5.980524 1.379276
H75 -3.213873 -2.830119 3.219585
H76 -3.054358 -1.249566 3.242414
H77 1.185248 -2.203875 2.934619
H78 -0.189289 -2.403398 2.343655
H79 -0.723253 3.152309 14.252968
H80 0.142049 3.160285 12.828525
H81 -8.402657 -0.243991 1.473864
H82 -9.842204 0.337474 1.566292
H83 4.632138 1.552581 0.808987
H84 5.242878 2.893283 0.592616
H85 8.984165 1.225951 -5.689546
H86 8.625354 2.354856 -4.606444
H87 -4.424363 5.667966 -0.030495
H88 -3.554301 4.613503 -0.670925
H89 4.259778 -0.257937 3.724280
H90 5.549906 -0.831610 2.843626
H91 2.921641 -1.065745 -0.321388
H92 3.328255 -2.535243 -0.544611
H93 -2.197040 -5.995057 -1.297523
H94 -0.641765 -5.591866 -1.485157
H95 4.470985 -4.516601 -12.090795
H96 3.474227 -3.753277 -11.231163
H97 -2.164994 -7.260772 -9.851454
H98 -1.563658 -8.153311 -8.602310
H99 -4.497395 8.293140 -8.021560
H100 -3.439668 7.548298 -8.881829
H101 -6.679460 4.886539 7.132935
H102 -5.244340 4.777357 6.430660
H103 -14.908568 8.170248 -6.819014
H104 -13.462074 8.599474 -6.048606
H105 0.853004 6.623133 -8.141297
H106 -0.401841 7.344666 -7.682487
H107 4.866215 -0.903985 -3.095081
H108 4.125365 -1.007174 -1.669062
H109 3.290242 -9.471424 3.816308
H110 2.377561 -9.466054 2.562772
H111 5.777358 8.146629 -6.156787
H112 6.115002 7.118658 -7.188333
H113 -2.235769 3.959932 -4.103722
H114 -2.534868 3.298114 -2.662485
H115 -7.458168 -2.326723 7.912728
H116 -6.998718 -0.835810 7.324038
H117 -4.213987 0.618082 3.186139
H118 -3.127499 0.622024 4.492497
H119 7.275766 -5.378585 9.547961
H120 6.760793 -6.156875 8.161950
H121 13.001714 -0.195065 2.555600
H122 13.246327 1.331970 1.951205
H123 11.139303 1.504199 -6.368969
H124 10.658516 0.045174 -6.145845
H125 -5.100086 -3.469817 -0.902247
H126 -5.750290 -2.541330 0.113088
H127 6.351215 -1.640932 5.619832
H128 7.487750 -0.690835 5.275404
