192
1 12.414492 0.000000 0.000000 0.000000 12.414492 0.000000 0.000000 0.000000 12.414492
O1 3.707078 6.414895 4.419427
O2 -0.532088 -8.703211 0.961819
O3 -10.682803 -7.157272 3.043432
O4 -7.407001 -0.285908 10.517742
O5 0.594759 8.832482 -4.554625
O6 -13.462241 0.820715 8.504487
O7 -12.442178 -5.143421 3.526885
O8 -4.166410 2.503695 -6.334757
O9 -5.898929 0.221494 4.071480
O10 9.355475 -2.525267 4.158188
O11 4.004798 -8.171922 -1.480481
O12 1.661801 9.631244 5.100426
O13 2.460085 6.548128 -3.532997
O14 -2.125526 5.256482 2.252221
O15 -11.661316 0.336151 -1.329001
O16 5.278542 7.522663 -0.385355
O17 -0.064835 4.040709 6.590989
O18 -2.225319 10.154041 9.270877
O19 -9.607823 -5.707402 11.674560
O20 -0.540400 13.360131 0.913684
O21 -11.558277 -4.099733 -0.814950
O22 -2.241106 -3.309774 1.351516
O23 9.536510 -5.599236 0.230890
O24 15.950093 11.560614 -16.248119
O25 5.278682 7.628737 2.708273
O26 4.230689 -5.007677 6.981893
O27 2.600444 -1.685272 -10.543423
O28 5.759187 4.569019 -7.666885
O29 -1.597638 12.292598 3.784755
O30 3.196023 0.411757 0.129106
O31 2.087824 1.602532 5.041749
O32 -2.655447 -7.729172 7.044197
O33 7.639534 3.823400 -9.460055
O34 10.845896 -10.925217 5.854424
O35 7.281246 8.161569 -3.635748
O36 -5.340296 -1.795254 -6.810970
O37 -7.369090 -9.742201 -5.315653
O38 -5.138886 6.341480 -1.563533
O39 0.295453 -3.293612 1.647843
O40 14.008196 -2.148859 -2.612348
O41 -6.950644 5.005817 -4.010616
O42 7.989987 -5.924540 5.354339
O43 18.743823 4.145706 12.726411
O44 6.625167 1.084979 -3.355038
O45 4.021188 2.627816 1.413334
O46 -1.023868 -17.955964 -1.958281
O47 -3.392284 1.729924 -2.284219
O48 4.410374 -10.315299 -8.404894
O49 -9.733559 1.434636 -4.749201
O50 1.846869 -7.785100 0.281042
O51 -3.351316 -11.589854 0.100131
O52 -12.302398 3.298023 -8.482720
O53 4.116367 -2.079971 6.427341
O54 -4.737234 -1.379428 -4.394693
O55 0.959533 -0.350679 3.811101
O56 -2.141137 -4.615356 -4.216859
O57 -7.073477 10.296636 2.496719
O58 -6.063541 -2.393524 -0.095171
O59 -3.410251 -1.739235 -0.485728
O60 -0.418815 4.276729 -2.153698
O61 -3.752013 -11.206684 -9.779457
O62 2.137739 3.889705 -3.378128
O63 -1.819176 7.747094 5.467091
O64 -3.259410 4.301569 9.633407
H1 2.935643 5.997604 3.911130
H2 4.396888 5.673717 4.535423
H3 0.465947 -8.512018 1.095249
H4 -0.648533 -9.759497 0.859917
H5 -11.251795 -7.936813 3.243411
H6 -10.527817 -7.325737 2.087539
H7 -7.923780 -0.639940 9.791960
H8 -6.967962 -1.006331 11.071598
H9 0.813644 9.511871 -3.812993
H10 1.073055 9.272822 -5.349441
H11 -12.741288 1.176221 9.082170
H12 -14.143133 1.358653 9.045618
H13 -11.811778 -5.756608 3.246354
H14 -12.444342 -4.415785 2.919392
H15 -4.836966 2.118321 -5.744123
H16 -4.041161 3.441145 -6.044083
H17 -5.129434 0.638428 3.618476
H18 -6.654755 0.864951 4.133462
H19 8.416133 -2.227388 4.453371
H20 9.763481 -3.207728 4.808245
H21 3.189514 -8.406558 -1.948809
H22 4.441236 -7.539713 -2.090970
H23 1.339288 10.455558 4.642641
H24 1.443118 8.844461 4.584681
H25 1.846153 7.236199 -3.954565
H26 3.263732 6.729710 -4.075342
H27 -1.411821 5.745279 2.814792
H28 -1.581116 4.491126 1.821647
H29 -10.698644 0.352009 -1.043315
H30 -11.996258 0.290202 -0.401846
H31 5.722151 8.428906 -0.376119
H32 5.954591 6.893811 -0.681063
H33 0.732606 4.381733 7.087419
H34 0.262402 4.013230 5.659974
H35 -1.529909 10.534439 8.760537
H36 -2.303041 9.295921 8.786684
H37 -9.509434 -5.730801 10.624347
H38 -8.696777 -5.418840 11.930907
H39 -0.567386 13.013170 1.817819
H40 -1.485001 13.190399 0.516455
H41 -12.263876 -4.628854 -1.264320
H42 -10.677841 -4.573950 -0.833211
H43 -1.321087 -3.047826 1.564836
H44 -2.754553 -2.992339 2.140287
H45 9.786201 -6.221922 0.982281
H46 9.839505 -4.781102 0.562101
H47 16.491574 11.161371 -17.005529
H48 15.290380 10.831792 -15.964062
H49 5.438522 7.302633 1.823423
H50 4.662837 7.125560 3.326641
H51 4.135400 -5.178510 6.010054
H52 4.189944 -4.060615 7.143804
H53 2.741362 -0.959113 -11.230479
H54 3.546841 -1.925046 -10.197212
H55 6.336692 4.172967 -8.402848
H56 5.933319 3.982373 -6.917571
H57 -1.600682 12.827587 4.638849
H58 -2.152371 11.373076 3.957641
H59 3.956724 0.177797 -0.463912
H60 3.513095 1.185476 0.609811
H61 1.717080 0.863035 4.510976
H62 1.863382 1.488368 6.029068
H63 -2.462035 -6.754168 6.890137
H64 -1.717127 -8.030062 6.902026
H65 7.882587 2.868614 -9.527798
H66 8.262883 4.343714 -9.964943
H67 11.325567 -11.223588 6.721025
H68 9.917633 -10.654837 6.200398
H69 8.211283 8.243300 -4.024213
H70 6.963974 9.065345 -3.807683
H71 -4.941343 -1.637077 -5.905215
H72 -5.561306 -0.872453 -7.042085
H73 -8.137491 -10.409041 -5.236387
H74 -7.538855 -8.956452 -4.682580
H75 -4.992579 7.052801 -2.207198
H76 -4.429128 6.393693 -0.832344
H77 0.233272 -3.540309 0.685115
H78 1.140263 -2.720440 1.624440
H79 13.472916 -1.330451 -2.334258
H80 13.762485 -2.861648 -1.896947
H81 -7.050752 5.972925 -4.191387
H82 -5.931668 4.942866 -3.983760
H83 7.795567 -5.348884 4.558830
H84 7.068977 -6.132215 5.633598
H85 18.521967 4.200633 11.774481
H86 19.466787 3.504874 12.816254
H87 6.014130 0.647470 -2.755290
H88 6.165365 1.770884 -4.000889
H89 4.805194 3.323400 1.344466
H90 3.878745 2.449318 2.379642
H91 -0.613016 -18.851688 -1.920116
H92 -1.687465 -17.759582 -1.203356
H93 -3.477924 2.681734 -2.584383
H94 -4.349185 1.479724 -2.578822
H95 3.951964 -10.515489 -7.519369
H96 4.763091 -9.443124 -8.076534
H97 -9.886831 2.201273 -4.160183
H98 -9.601302 0.673131 -4.161833
H99 2.063913 -6.905308 -0.128138
H100 2.644407 -8.229439 0.013952
H101 -3.467107 -11.237027 -0.892421
H102 -3.618163 -12.598520 -0.079902
H103 -13.236584 3.232474 -8.477211
H104 -11.886042 2.529365 -7.976442
H105 3.412911 -2.310550 5.805664
H106 5.034677 -2.040058 5.965118
H107 -4.964473 -0.465074 -3.976759
H108 -3.852589 -1.605945 -3.985183
H109 -0.072373 -0.360708 3.606869
H110 1.507627 -0.830908 3.106239
H111 -1.686888 -4.911019 -3.423492
H112 -1.483972 -4.596975 -4.941073
H113 -7.081586 9.276416 2.822775
H114 -6.547042 10.870077 3.208212
H115 -6.322012 -2.093619 0.815409
H116 -5.104203 -2.271816 -0.240221
H117 -2.747177 -2.208295 0.120415
H118 -3.018208 -1.770672 -1.382332
H119 -1.402018 4.009318 -2.357393
H120 -0.289533 4.018322 -1.200010
H121 -3.890583 -11.256921 -10.772001
H122 -2.879241 -11.554171 -9.503354
H123 2.132988 4.781179 -3.669390
H124 1.334878 3.751802 -2.893389
H125 -2.691651 7.220890 5.364797
H126 -1.153452 7.480225 4.789143
H127 -2.854264 4.429199 8.664307
H128 -3.667972 5.187127 9.904517
