192
1 12.414492 0.000000 0.000000 0.000000 12.414492 0.000000 0.000000 0.000000 12.414492
O1 -11.583530 3.605748 3.510775
O2 -5.836202 -6.355110 -4.418623
O3 -5.089531 -2.647258 0.687279
O4 -3.911225 10.117490 8.686527
O5 1.121726 1.015702 2.126357
O6 8.415454 0.003248 -2.664528
O7 4.457715 -10.962471 6.342747
O8 -2.523678 -4.837766 2.316096
O9 4.350703 7.022127 10.239679
O10 -3.623931 -7.078529 -5.962544
O11 -2.048594 -10.707292 -2.996840
O12 -5.017853 -3.551233 3.167650
O13 4.620025 -2.418962 -12.877035
O14 2.626102 0.060261 -2.446020
O15 2.770765 -7.245635 2.327491
O16 11.059667 10.370697 0.304920
O17 12.669188 8.983004 7.001422
O18 11.092482 3.444926 -5.314513
O19 3.922623 -4.157162 -8.221036
O20 8.703614 -0.685825 -0.038956
O21 -1.603787 5.203316 -0.232405
O22 2.210349 -2.428729 0.855360
O23 -4.269910 8.676666 -1.502523
O24 -16.571438 5.328172 -22.415603
O25 -7.361747 -8.004207 3.849170
O26 -6.758171 -1.276381 -3.814747
O27 2.960685 4.532685 -0.491847
O28 -1.399341 -7.732227 2.336105
O29 1.762072 0.207035 6.900636
O30 -3.707942 -2.276363 5.239346
O31 2.607002 3.479111 6.724592
O32 -7.482274 4.414503 -2.964879
O33 -1.019648 -1.511485 8.964652
O34 -17.476455 1.768097 -5.587997
O35 -5.145147 3.629268 4.710346
O36 1.835822 -5.802348 -4.572258
O37 0.427633 5.210243 6.082700
O38 -3.188888 -10.469254 0.680886
O39 3.990483 10.665352 -9.154968
O40 0.435452 -0.521449 -1.043692
O41 -6.769912 0.491460 3.676604
O42 -0.371674 1.773740 0.117285
O43 2.473173 2.950405 9.514660
O44 0.925058 5.436052 -2.258021
O45 5.061926 0.510815 -1.036376
O46 9.792396 -7.845973 9.832918
O47 -8.770489 14.207090 2.762153
O48 2.657199 -2.356742 -3.909575
O49 -5.151582 4.004852 0.263523
O50 -5.378945 2.280288 -2.923529
O51 4.776026 -9.829030 0.549351
O52 4.401743 -5.823477 6.381131
O53 -1.710926 -4.664427 -0.454966
O54 -0.622189 1.369816 -6.607648
O55 0.792903 -3.439470 4.303709
O56 8.608374 1.654910 -9.252838
O57 -2.754149 7.969587 -5.749421
O58 -0.615115 6.691413 4.188560
O59 3.211919 7.441416 0.935335
O60 -0.123996 -1.347811 2.869657
O61 -6.785587 7.001431 2.651323
O62 -6.404298 -1.581318 -6.645598
O63 7.603871 -6.273938 -1.908030
O64 -2.271673 -0.235993 4.171722
H1 -11.268592 2.712531 3.317010
H2 -12.385925 3.760898 2.897550
H3 -5.055765 -6.679530 -4.985057
H4 -6.216298 -7.211357 -4.058618
H5 -6.072478 -2.453965 0.462858
H6 -4.516417 -1.825734 0.702119
H7 -4.139540 9.606784 9.532314
H8 -3.828409 9.357663 8.052189
H9 2.141132 1.136132 2.428018
H10 0.648473 0.201623 2.414524
H11 7.756100 0.691645 -2.935447
H12 8.206768 -0.863697 -3.111793
H13 5.298759 -11.147189 6.817667
H14 4.620768 -11.235707 5.419953
H15 -2.318184 -4.707527 1.397158
H16 -3.445261 -4.366606 2.328922
H17 4.570518 7.763362 10.922685
H18 3.724682 7.470604 9.669976
H19 -3.214857 -6.163213 -5.863980
H20 -2.981002 -7.747623 -5.718823
H21 -2.736975 -11.469551 -3.144381
H22 -1.655304 -10.859712 -2.117359
H23 -5.193788 -2.900363 2.442779
H24 -5.640748 -4.305381 3.032596
H25 3.783485 -2.164145 -12.404270
H26 4.873663 -1.729358 -13.490856
H27 2.578347 -0.585566 -3.159745
H28 2.088109 -0.222453 -1.682107
H29 3.687533 -7.425601 2.654116
H30 2.217012 -7.638840 2.996293
H31 11.693176 10.928791 -0.110983
H32 10.209070 10.772600 0.204597
H33 13.196858 8.142124 7.132839
H34 12.857128 9.339098 6.094373
H35 11.024465 3.260973 -4.330234
H36 11.862135 4.144687 -5.500527
H37 4.067212 -4.432969 -7.307458
H38 3.912124 -3.177073 -8.288885
H39 8.713325 0.171665 0.542329
H40 8.549609 -0.399081 -1.013682
H41 -1.305745 6.081253 -0.512456
H42 -2.227413 4.886386 -0.969881
H43 2.453189 -3.304320 0.376892
H44 1.343992 -2.134788 0.433989
H45 -4.529891 7.775686 -1.690938
H46 -4.780028 9.033604 -0.604853
H47 -16.150322 6.156343 -22.646208
H48 -15.766109 4.703912 -22.171399
H49 -7.449175 -7.536058 4.739249
H50 -6.408983 -8.361106 4.014841
H51 -7.485960 -1.852608 -3.456181
H52 -6.036048 -1.909666 -3.883507
H53 2.567237 4.728159 0.459754
H54 3.029723 5.430793 -0.908842
H55 -0.945812 -7.053642 2.850616
H56 -1.531194 -7.401693 1.401805
H57 1.212377 0.479849 6.175207
H58 2.651373 0.491314 6.763445
H59 -4.083548 -2.982346 4.644104
H60 -4.546191 -1.872975 5.526298
H61 3.076668 4.245343 7.159847
H62 3.431596 2.878004 6.593734
H63 -8.211665 3.716732 -3.030412
H64 -7.777405 5.323078 -2.663353
H65 -1.881682 -1.747166 8.628365
H66 -0.574974 -2.221844 8.422922
H67 -17.639774 2.542522 -6.204825
H68 -16.727905 1.305980 -6.068945
H69 -4.688762 2.969579 4.065328
H70 -4.429522 4.193027 5.168104
H71 1.376644 -6.163859 -3.693838
H72 1.432699 -6.482781 -5.284404
H73 0.057200 5.860082 5.401552
H74 1.128349 4.718216 5.623746
H75 -3.652832 -9.656768 0.625884
H76 -2.187538 -10.458356 0.625840
H77 4.658974 11.317525 -9.296010
H78 3.362015 10.599345 -9.861374
H79 0.078676 0.405799 -0.922955
H80 -0.069583 -0.849230 -1.881665
H81 -5.922203 0.873190 3.541440
H82 -7.493441 1.057958 3.276253
H83 -0.333927 2.580393 -0.396125
H84 0.413363 1.778747 0.790794
H85 2.544794 1.903196 9.419099
H86 2.096799 3.129015 8.517380
H87 -0.007746 5.203432 -1.984633
H88 1.417006 4.655968 -2.233724
H89 5.710753 0.509178 -1.755975
H90 4.162383 0.570991 -1.444491
H91 9.468859 -8.757435 9.869303
H92 8.901427 -7.393030 9.839520
H93 -8.790948 15.082433 3.286438
H94 -8.484526 14.591621 1.871729
H95 2.319880 -1.740948 -4.588977
H96 1.852205 -2.911870 -3.755052
H97 -4.976464 4.572948 1.069423
H98 -6.067851 3.717077 0.367582
H99 -5.200017 2.214873 -3.930342
H100 -6.159577 2.851968 -2.862540
H101 4.040671 -9.244174 0.016068
H102 4.926508 -10.625605 -0.000942
H103 3.714599 -5.588045 7.042091
H104 5.298926 -5.752710 6.841128
H105 -1.407387 -3.821746 -0.005180
H106 -2.419246 -4.429384 -1.115982
H107 -0.139290 2.045545 -7.133463
H108 -0.985572 1.916834 -5.876544
H109 0.661239 -2.663065 3.643540
H110 1.726269 -3.724563 4.123625
H111 8.962285 0.810926 -8.769923
H112 9.070130 1.659976 -10.129480
H113 -3.086363 8.826615 -6.149868
H114 -1.818763 8.228384 -5.575957
H115 -0.147187 7.541601 3.986712
H116 -1.572318 6.920753 4.096016
H117 4.164049 7.229546 1.122908
H118 2.737241 6.817157 1.499356
H119 -0.849156 -1.050159 3.466282
H120 -0.508150 -1.781969 2.043414
H121 -6.717045 6.072635 2.999125
H122 -7.474343 7.394150 3.221994
H123 -6.675726 -1.457800 -5.697731
H124 -6.658603 -0.749878 -7.165862
H125 6.928770 -6.257022 -2.671542
H126 7.256345 -6.835255 -1.212460
H127 -1.850357 0.266556 4.917830
H128 -2.796824 -0.904409 4.612409
