192
1 12.414492 0.000000 0.000000 0.000000 12.414492 0.000000 0.000000 0.000000 12.414492
O1 12.661326 10.489875 4.157572
O2 11.086562 0.614783 -19.290939
O3 -1.823732 -8.879822 10.016346
O4 6.541013 8.935510 11.999697
O5 6.828152 8.436391 6.117542
O6 -0.621617 12.473246 -0.648747
O7 -10.437173 -5.097208 0.676635
O8 -2.488446 -7.685987 -4.724940
O9 16.987826 -4.479558 -7.841987
O10 -5.733485 1.373440 -9.293893
O11 -3.546599 3.406641 -8.562121
O12 -0.991222 -2.432581 0.918286
O13 7.351310 -6.917154 -7.137059
O14 -9.720262 -7.726753 -3.322192
O15 6.838035 11.323484 5.978359
O16 -1.128934 -4.182385 -14.303899
O17 1.978557 2.694162 15.413222
O18 3.019415 9.819921 -15.103678
O19 -8.239550 1.611613 1.936711
O20 -6.572465 2.049750 -1.653186
O21 0.097224 -1.700577 -2.796194
O22 6.695998 6.714059 10.400722
O23 -14.543495 -10.211807 -11.843379
O24 -4.176755 -2.042821 -4.433553
O25 12.014115 2.389560 7.467637
O26 -12.799056 0.978418 2.877835
O27 1.383298 1.792953 -0.802586
O28 -10.634469 8.406640 -7.470600
O29 0.788320 -5.782825 7.296879
O30 -10.690132 -1.170475 1.987426
O31 1.405646 -5.387516 -14.540902
O32 3.710497 -7.099905 4.027320
O33 8.569942 1.706135 9.753440
O34 -4.650941 -7.287895 1.721294
O35 -1.468609 -2.292427 -4.924553
O36 -7.835727 2.345016 5.021227
O37 -5.578413 -1.269909 3.263867
O38 -5.990602 -8.044736 -0.509537
O39 9.142222 -5.738937 -2.714540
O40 8.414758 13.436553 6.554060
O41 14.351040 -8.135112 0.604998
O42 14.419276 2.145469 8.814850
O43 -4.383011 -0.814731 -1.378670
O44 -0.826223 16.181529 3.974872
O45 -1.879601 -5.232394 7.007242
O46 -2.604097 6.749926 -11.635978
O47 18.321475 -12.011390 -3.633340
O48 3.838367 -1.731724 3.175365
O49 0.935794 16.897930 -6.486995
O50 19.975880 3.471560 -4.981659
O51 -7.170176 10.777362 -1.797068
O52 -7.627318 -4.033702 1.904240
O53 -0.700237 4.667871 -0.100923
O54 -13.810824 -4.096615 4.223332
O55 3.495379 -12.462419 -0.130549
O56 4.782041 4.006395 -5.077058
O57 -5.146320 1.491484 0.594669
O58 -12.277768 -6.016539 -9.256950
O59 4.564375 -5.620326 8.581137
O60 8.721873 -2.837282 1.188328
O61 -20.960596 -0.464884 5.573119
O62 -16.182517 8.198725 3.354365
O63 -7.759436 -6.718341 1.588098
O64 1.980331 -1.413878 -5.231710
H1 13.374382 9.894757 4.428943
H2 12.941954 10.813435 3.271523
H3 11.494454 -0.300372 -19.186199
H4 11.219028 0.792083 -20.243146
H5 -1.261794 -8.412199 10.670191
H6 -1.991065 -8.201453 9.345087
H7 7.448421 9.403702 12.065260
H8 6.636953 7.950660 11.705110
H9 7.278856 7.615420 6.397060
H10 7.060527 9.150510 6.689974
H11 -0.577438 12.010741 -1.562915
H12 -0.835658 11.728344 -0.060006
H13 -9.586587 -4.705234 0.999445
H14 -10.181254 -6.022576 0.647156
H15 -2.299242 -6.838231 -5.211558
H16 -3.363009 -8.021675 -5.125294
H17 16.904299 -5.412131 -8.122160
H18 17.745243 -4.310461 -7.222481
H19 -5.384059 0.423935 -9.256068
H20 -5.751505 1.599242 -10.241540
H21 -3.835962 3.655509 -9.430872
H22 -3.858326 2.487557 -8.240429
H23 -1.995259 -2.666894 1.149087
H24 -0.665210 -2.959903 0.169431
H25 6.372774 -7.109270 -7.153819
H26 7.703550 -7.691667 -7.615748
H27 -10.219011 -7.243108 -4.012959
H28 -9.998570 -8.661125 -3.442972
H29 5.908308 11.738120 6.030601
H30 7.431899 12.112582 5.989313
H31 -1.002108 -3.424047 -14.963827
H32 -0.232462 -4.628777 -14.370959
H33 1.227705 1.937555 15.482066
H34 2.684493 2.073611 15.026970
H35 3.892348 10.293408 -14.781867
H36 3.062103 8.811586 -14.928455
H37 -8.603222 1.075986 1.199601
H38 -7.593866 1.029767 2.429457
H39 -6.011984 2.879999 -1.383422
H40 -7.474403 2.399539 -1.302502
H41 -0.288815 -1.785087 -3.719008
H42 1.085709 -1.513631 -2.917115
H43 6.181914 6.570847 9.606385
H44 7.676392 6.747790 10.165432
H45 -14.034947 -9.439269 -12.108068
H46 -14.281901 -11.057225 -12.303759
H47 -4.794606 -1.336517 -4.577420
H48 -4.236989 -2.189570 -3.438639
H49 11.610772 1.807127 6.742057
H50 11.298771 2.976756 7.775689
H51 -12.363358 0.099735 2.639659
H52 -13.435298 1.157647 2.195488
H53 0.632693 1.158103 -0.637438
H54 2.300959 1.263997 -0.819159
H55 -9.636975 8.293287 -7.451762
H56 -11.019652 7.660782 -7.982140
H57 1.013147 -4.941648 6.868888
H58 0.939302 -6.440866 6.491854
H59 -11.200545 -1.748226 1.402687
H60 -9.786788 -1.555816 2.212094
H61 1.403041 -6.403759 -14.465796
H62 1.838856 -4.908165 -13.767888
H63 3.987567 -6.961839 3.076861
H64 2.791096 -6.997560 4.114702
H65 9.032367 2.557036 10.038731
H66 9.290514 1.146592 9.273839
H67 -4.224489 -6.464849 1.559649
H68 -5.419599 -7.054482 2.229096
H69 -1.731181 -3.264579 -5.053786
H70 -2.490055 -2.016249 -4.843724
H71 -6.977407 2.217108 4.532547
H72 -8.569260 2.732867 4.421943
H73 -6.567355 -1.265076 3.111500
H74 -5.532873 -1.468028 4.283297
H75 -5.315998 -7.963608 0.236788
H76 -6.032267 -7.076844 -0.925536
H77 10.028076 -5.335221 -2.419716
H78 9.392658 -6.323239 -3.442474
H79 9.262746 13.678706 6.230508
H80 8.002600 14.286878 6.708861
H81 14.259237 -8.811671 -0.106547
H82 14.422973 -8.663245 1.436311
H83 13.665863 1.957276 8.286573
H84 14.120208 2.356083 9.728449
H85 -4.876793 -0.154759 -0.791240
H86 -3.505773 -0.553912 -1.270815
H87 -0.427353 15.638795 3.301277
H88 -1.866334 16.160424 3.938052
H89 -0.920608 -5.478695 7.257404
H90 -1.744139 -5.146453 6.026898
H91 -2.273780 7.636934 -11.260578
H92 -2.527063 6.880213 -12.625512
H93 18.735849 -11.312918 -3.091400
H94 17.554496 -11.455430 -3.918035
H95 3.958411 -2.754366 3.379809
H96 3.765492 -1.215333 4.076464
H97 0.138264 16.804903 -7.057637
H98 0.990258 16.072414 -6.006353
H99 19.102342 3.891219 -4.960776
H100 20.059795 2.845191 -4.232866
H101 -6.642856 11.409503 -2.241206
H102 -6.551983 10.047137 -1.284194
H103 -6.957424 -3.590557 1.366959
H104 -7.227513 -4.051588 2.822237
H105 -1.321060 5.311694 0.427062
H106 0.111565 4.582730 0.520736
H107 -13.346573 -4.823726 3.755023
H108 -13.320745 -3.257239 4.044622
H109 2.840388 -13.068573 0.402638
H110 4.015390 -13.109970 -0.647187
H111 4.028742 3.999552 -4.467220
H112 4.513439 3.446035 -5.810653
H113 -5.949350 1.794157 0.140098
H114 -4.371779 2.079052 0.403089
H115 -11.764317 -5.763300 -10.076874
H116 -12.376920 -6.963823 -9.205438
H117 4.678424 -4.813529 8.107763
H118 4.027606 -6.240212 8.080761
H119 8.517366 -3.435113 1.986730
H120 8.450838 -1.963790 1.605429
H121 -20.965481 0.532253 5.394033
H122 -21.584293 -0.689085 6.266705
H123 -15.225906 8.325086 3.823468
H124 -16.868245 8.197122 3.959352
H125 -7.319887 -7.245852 0.878750
H126 -7.508849 -5.686304 1.505661
H127 1.243922 -0.822634 -5.214856
H128 2.263752 -1.860433 -4.393196
