192
1 12.414492 0.000000 0.000000 0.000000 12.414492 0.000000 0.000000 0.000000 12.414492
O1 7.286980 9.039871 6.507866
O2 -5.473124 -7.178949 -7.869889
O3 2.961785 -5.051179 2.367074
O4 -6.493395 4.814632 -3.080208
O5 0.567651 -5.910443 1.126912
O6 2.634580 0.709934 -7.017304
O7 -1.540449 -6.211970 7.448516
O8 0.489460 3.804833 -2.551993
O9 -2.518266 -2.623240 8.614626
O10 -0.351744 8.063576 -3.431946
O11 -4.478346 5.885758 2.107186
O12 -12.172405 0.667773 -10.262930
O13 -5.369165 15.167609 -1.160828
O14 3.126522 -1.791016 -0.782909
O15 -3.878777 0.974367 6.430367
O16 7.526926 0.517156 10.142007
O17 -2.786276 3.592288 4.474650
O18 -2.511330 2.989421 -3.577880
O19 -1.670621 -9.008712 -0.513592
O20 7.861523 -15.870834 -2.356265
O21 -7.099870 -6.667741 0.581148
O22 -3.264684 8.260550 3.195401
O23 3.778993 4.385483 3.265668
O24 3.214470 -2.453535 2.029550
O25 8.826464 -2.170858 -0.226042
O26 0.062665 7.667401 4.185300
O27 4.322716 8.895807 -2.543694
O28 1.776682 -10.905502 -1.901152
O29 0.519114 6.366416 -1.690096
O30 2.757772 11.855706 -3.337150
O31 10.073965 -5.459503 -7.216901
O32 3.579211 5.735528 7.353559
O33 3.495241 -8.706797 -0.394014
O34 0.417677 -7.816213 -5.158349
O35 1.409204 8.857082 -5.745650
O36 -3.596371 -6.957351 -0.345537
O37 7.240848 -10.981993 1.479604
O38 -1.044432 -3.763138 1.450335
O39 -1.916363 -0.400357 4.595672
O40 0.995346 11.590819 7.131034
O41 -11.869284 -2.055946 2.895493
O42 -2.551274 1.025845 -0.620729
O43 8.409173 6.314154 -3.346675
O44 -7.405941 10.555533 3.980831
O45 3.967215 0.747336 3.038835
O46 -0.206585 -2.821451 -1.053006
O47 -6.492830 -3.587574 -0.266352
O48 3.866491 -3.174679 -5.235642
O49 -2.667625 -11.700955 -10.327164
O50 4.201762 3.406107 -6.629818
O51 -6.298520 2.702374 3.523782
O52 -12.318747 -0.018641 -0.636178
O53 -6.698693 6.900572 -6.225752
O54 -1.490799 0.121786 -4.820757
O55 3.716662 -11.608796 0.517038
O56 11.839610 4.336334 -10.496956
O57 -5.180907 -0.861409 -4.500239
O58 -6.155955 2.937360 7.601112
O59 1.714017 2.872277 1.943932
O60 3.277683 -6.058030 10.269326
O61 4.876421 0.293001 7.486145
O62 12.711883 2.618391 -6.959498
O63 -5.872301 -0.840979 -0.129568
O64 7.621373 -2.265285 4.161650
H1 8.190874 8.767711 6.588102
H2 6.779279 8.215470 6.885743
H3 -4.899887 -6.952735 -8.677460
H4 -5.774529 -8.099407 -8.144900
H5 2.533505 -5.269403 3.278970
H6 2.948904 -4.063614 2.225141
H7 -6.503946 4.477389 -2.151958
H8 -6.546145 3.896675 -3.555890
H9 0.168391 -6.756288 1.534145
H10 1.467777 -5.731025 1.639754
H11 2.830888 0.276395 -7.834990
H12 2.345288 0.049369 -6.268955
H13 -0.826629 -6.905771 7.274492
H14 -1.156557 -5.573644 8.075395
H15 0.862658 2.894241 -2.563258
H16 0.453441 4.184799 -3.474808
H17 -2.250975 -1.815579 8.209790
H18 -1.721899 -3.123822 8.721496
H19 0.082729 7.347579 -2.936386
H20 0.286209 8.479565 -4.122416
H21 -4.167122 5.660579 1.171102
H22 -4.114259 6.824557 2.294877
H23 -12.068657 0.451686 -11.278809
H24 -12.213788 -0.200571 -9.783660
H25 -4.946774 14.639554 -1.821787
H26 -4.869680 16.068133 -1.106007
H27 2.233490 -2.136258 -0.918261
H28 3.732981 -2.491836 -1.334017
H29 -4.000223 1.527179 5.657566
H30 -2.900787 0.763564 6.315937
H31 7.378090 -0.149169 9.440363
H32 7.104126 -0.002093 10.977933
H33 -2.779989 3.844348 3.523330
H34 -3.495965 4.183391 4.791193
H35 -2.218804 3.858558 -3.871349
H36 -3.122216 2.783103 -4.310165
H37 -2.169043 -9.843219 -0.503707
H38 -0.967433 -8.934825 -1.232991
H39 8.267080 -15.225835 -2.947745
H40 8.343437 -16.722943 -2.591264
H41 -7.396404 -5.696083 0.481795
H42 -6.416646 -6.670905 1.267566
H43 -2.471962 8.354824 2.608787
H44 -2.846177 7.856945 4.052251
H45 3.757647 5.328683 3.023964
H46 4.693563 4.096175 2.898143
H47 3.215621 -2.130598 1.112241
H48 3.971727 -2.224862 2.564800
H49 9.181851 -2.341436 0.655168
H50 8.973582 -2.972958 -0.837188
H51 -0.843441 7.537542 4.597170
H52 -0.002071 8.564428 3.743044
H53 3.989551 7.947104 -2.592728
H54 5.251600 8.750285 -2.076682
H55 2.607557 -10.519507 -1.626424
H56 2.096458 -11.618214 -2.580766
H57 0.446512 6.692910 -0.744362
H58 0.106167 5.521305 -1.660665
H59 3.643849 11.914129 -3.888726
H60 2.974696 11.337922 -2.532860
H61 9.994006 -6.375725 -7.516848
H62 10.504801 -5.608524 -6.339627
H63 3.714606 5.630963 8.343665
H64 3.727567 4.822987 7.064418
H65 2.821917 -8.682395 0.264933
H66 4.289684 -8.319625 0.063158
H67 1.419776 -7.568518 -5.335790
H68 0.338157 -8.499350 -5.900735
H69 2.441487 8.950403 -5.612424
H70 1.178084 8.245453 -6.452928
H71 -2.929647 -7.694548 -0.426606
H72 -3.782423 -6.508432 -1.212954
H73 7.390433 -10.578227 0.595051
H74 8.196752 -11.262075 1.677572
H75 -0.360210 -4.488269 1.416439
H76 -0.985289 -3.450263 0.462500
H77 -2.584857 -1.040879 4.898115
H78 -1.021615 -0.729646 4.754248
H79 1.467418 11.475228 8.042175
H80 0.720314 10.630642 6.922605
H81 -10.921699 -2.215598 2.810418
H82 -12.206761 -2.656651 2.237312
H83 -3.125696 0.857872 -1.453316
H84 -2.736292 0.221942 -0.156431
H85 9.225222 6.010759 -3.792765
H86 7.675463 5.703913 -3.529547
H87 -6.492909 10.250656 4.019431
H88 -7.659501 10.446494 4.866881
H89 4.663946 0.065784 3.302008
H90 3.876437 0.860135 2.057141
H91 -0.360025 -1.811641 -1.188045
H92 -0.309868 -3.242214 -1.959281
H93 -5.602785 -3.633735 -0.657859
H94 -6.692152 -2.562571 -0.307299
H95 4.430651 -3.775638 -5.821416
H96 4.065282 -3.300130 -4.283610
H97 -2.647609 -12.236660 -9.471184
H98 -1.743121 -11.377103 -10.408600
H99 4.155319 3.680939 -7.574121
H100 3.580053 2.524013 -6.620435
H101 -5.605619 2.261460 2.948539
H102 -7.024296 2.102898 3.480396
H103 -11.571854 0.622267 -0.999058
H104 -13.165151 0.472632 -0.727466
H105 -7.474693 6.418078 -5.779295
H106 -6.053326 6.373681 -6.778744
H107 -1.518266 0.872131 -4.199358
H108 -0.561244 -0.098622 -5.123266
H109 4.140763 -11.216906 -0.260168
H110 3.348306 -12.332722 0.092440
H111 11.466077 3.922751 -11.419452
H112 12.664163 3.817203 -10.229144
H113 -5.089943 -1.785178 -4.902227
H114 -4.573437 -0.318309 -5.208170
H115 -6.746587 2.933628 6.771732
H116 -6.076994 2.048290 7.923486
H117 1.442496 1.908632 2.227601
H118 2.534241 3.253110 2.403080
H119 3.283545 -6.885424 10.821559
H120 2.221081 -5.990228 10.118045
H121 4.649563 0.531862 6.567466
H122 5.792503 -0.164579 7.478601
H123 13.375981 1.881666 -6.906633
H124 11.948644 2.374928 -7.509768
H125 -5.828790 -0.158961 0.593881
H126 -4.959087 -1.227459 -0.027399
H127 8.311410 -2.854648 3.707626
H128 7.260498 -2.622675 4.992595
