192
1 12.414492 0.000000 0.000000 0.000000 12.414492 0.000000 0.000000 0.000000 12.414492
O1 10.235039 -7.902935 4.169654
O2 3.603835 -5.087918 0.734815
O3 -0.076676 -8.524638 -2.692515
O4 1.149122 1.676771 -0.753994
O5 -1.824644 2.755731 2.263655
O6 7.322281 0.645015 0.456762
O7 -0.608052 -2.032992 -2.379058
O8 -7.361293 1.861967 -0.688230
O9 5.046165 -1.937682 -10.238601
O10 -3.576146 2.320150 -2.613294
O11 -8.106474 -0.738717 -2.569491
O12 6.842968 -7.924748 -3.433815
O13 -2.115069 1.939680 7.346229
O14 -5.450237 -0.869598 3.775734
O15 -9.802541 -0.817178 -9.698442
O16 -4.137856 1.349235 5.691533
O17 -0.260830 -0.492190 7.356300
O18 8.579481 7.803232 3.859370
O19 2.530160 5.187614 11.776956
O20 -6.088600 -14.172613 -0.231188
O21 0.409283 -5.983713 -1.412667
O22 4.750224 0.134186 -5.870709
O23 -1.271006 -5.273154 0.585288
O24 2.271471 10.568294 5.272260
O25 -0.720067 11.452006 4.401564
O26 2.864064 5.193140 -6.094605
O27 8.384196 -2.865298 -1.624937
O28 3.870142 3.545823 3.414942
O29 -1.360603 8.386657 -4.253891
O30 0.052678 1.458734 3.385241
O31 2.093881 13.057388 7.086901
O32 -4.851171 -1.443708 -6.260649
O33 8.624579 -6.309809 0.972853
O34 -3.530020 -6.789525 -4.390132
O35 -2.025170 -2.436952 -0.033614
O36 2.333249 9.732470 -0.948968
O37 0.705354 8.556166 4.997192
O38 -7.658926 1.058794 -8.366108
O39 -6.123181 7.815523 0.231588
O40 -1.357090 2.388692 -0.775250
O41 3.939739 5.541378 -3.632682
O42 7.701739 5.099918 3.458090
O43 -15.139816 0.303812 -0.998154
O44 -6.388564 2.449357 7.027873
O45 -8.608728 -4.141270 -4.409900
O46 -2.706676 -2.100933 -9.668339
O47 9.429418 -3.096042 -6.298393
O48 0.746012 -0.695015 0.357947
O49 -6.720588 4.767836 -0.643704
O50 3.000415 -9.557875 0.669790
O51 -2.854888 4.714571 -1.512355
O52 6.510387 7.984843 9.101804
O53 1.531367 -3.928269 -3.112453
O54 2.669515 2.317674 -2.898287
O55 -0.029276 6.368201 2.968912
O56 0.395246 6.459258 6.963090
O57 -3.808324 -0.712143 8.909392
O58 -6.477573 4.808150 5.736464
O59 5.712928 -4.142153 3.632483
O60 1.725817 2.732779 -7.310673
O61 11.028865 -7.824379 6.830007
O62 -4.519968 -10.562822 2.640273
O63 5.048109 -2.895631 5.896303
O64 3.898174 -6.257131 -9.252900
H1 10.226471 -8.640998 3.528046
H2 10.642989 -8.029998 5.086346
H3 3.284260 -5.762759 0.068211
H4 4.539196 -4.927958 0.605121
H5 0.682965 -9.111399 -2.632935
H6 -0.419525 -8.727597 -3.576243
H7 1.822628 2.176788 -0.189594
H8 1.157015 0.773922 -0.302058
H9 -1.050860 2.254483 2.669587
H10 -1.493778 2.972409 1.423185
H11 7.498858 1.194662 1.344107
H12 8.170126 0.551995 0.037723
H13 0.179676 -2.598902 -2.530418
H14 -0.845359 -2.021151 -1.397809
H15 -7.021122 2.764109 -0.856697
H16 -6.503854 1.487102 -0.376458
H17 5.453914 -1.875676 -11.166056
H18 5.245937 -2.858421 -9.894971
H19 -3.321000 3.103068 -2.112448
H20 -3.326199 1.521482 -2.093397
H21 -8.445798 0.092587 -2.243055
H22 -8.770540 -1.390949 -2.435171
H23 6.786603 -8.885386 -3.450629
H24 6.048748 -7.521710 -3.796436
H25 -2.534252 2.353461 8.158864
H26 -1.608525 2.708653 6.933662
H27 -6.127970 -1.342265 3.242649
H28 -5.689354 0.060824 3.998850
H29 -10.342035 -0.796069 -10.508354
H30 -9.099394 -1.512387 -9.886305
H31 -3.819342 1.737635 4.832829
H32 -3.472959 1.610526 6.365742
H33 -1.063766 0.080311 7.440797
H34 -0.304039 -0.945433 8.229920
H35 8.762142 8.108056 4.817037
H36 8.407871 6.747972 3.952790
H37 2.749387 4.522597 12.450539
H38 1.597437 5.522145 11.840986
H39 -5.613204 -13.413232 0.227254
H40 -6.744930 -13.758245 -0.795975
H41 -0.328330 -5.887745 -0.703578
H42 0.106014 -6.820649 -1.891639
H43 5.192772 -0.714847 -5.769309
H44 3.767672 0.013874 -5.555404
H45 -0.913396 -5.344762 1.528002
H46 -1.699785 -4.380544 0.364464
H47 2.451509 10.716784 4.298206
H48 2.223533 11.496240 5.537413
H49 -1.376045 10.971823 3.851526
H50 -1.032765 11.381439 5.312140
H51 2.443807 4.400279 -6.430655
H52 3.146749 5.057496 -5.144267
H53 7.644115 -2.433185 -1.145647
H54 8.765459 -2.184514 -2.265862
H55 4.474204 2.959724 3.926716
H56 4.153301 4.474281 3.565424
H57 -0.527360 7.732534 -4.229111
H58 -1.404715 8.965617 -3.485736
H59 -0.442931 0.591871 3.650179
H60 0.521823 1.687814 4.175391
H61 1.095127 12.680080 7.086254
H62 2.260742 13.399520 8.056311
H63 -4.944265 -1.147351 -7.222390
H64 -5.480988 -2.122079 -6.231967
H65 9.541289 -6.007385 1.186434
H66 8.213788 -6.494100 1.945847
H67 -4.341349 -7.254140 -4.113356
H68 -3.741755 -5.839886 -4.190729
H69 -2.918009 -2.728584 -0.424327
H70 -2.247372 -2.240921 0.929205
H71 2.732924 9.185658 -0.236337
H72 2.207299 9.125738 -1.717404
H73 1.200852 9.408770 5.266703
H74 -0.158252 8.916969 4.679580
H75 -8.187199 0.360851 -8.877855
H76 -7.914594 0.912359 -7.453142
H77 -5.375031 7.302077 0.525459
H78 -5.836082 8.762536 0.233636
H79 -1.528559 2.924305 -1.612432
H80 -0.356912 2.300473 -0.698037
H81 3.476793 6.380902 -3.790728
H82 3.585430 5.145168 -2.773616
H83 8.560892 4.977982 3.961698
H84 6.946596 4.967611 4.090678
H85 -14.909445 -0.599480 -1.068559
H86 -14.305810 0.857741 -0.773209
H87 -5.604034 2.095363 6.589577
H88 -6.991206 1.633095 6.893884
H89 -7.804022 -3.989929 -3.913644
H90 -8.354667 -3.942959 -5.417512
H91 -2.953301 -3.060107 -9.640017
H92 -3.492853 -1.663690 -9.411519
H93 10.001016 -3.314311 -5.464849
H94 8.813216 -2.376924 -6.142677
H95 -0.136403 -1.027966 0.567959
H96 1.182084 -1.235129 -0.295630
H97 -6.222197 5.098240 -1.520859
H98 -6.109455 4.991654 0.143938
H99 2.923963 -9.384943 1.633318
H100 3.857881 -10.046646 0.328894
H101 -3.192394 5.105770 -2.302049
H102 -3.306491 5.144050 -0.724872
H103 6.724133 7.020478 9.127708
H104 6.922977 8.204325 9.963715
H105 2.333029 -3.848590 -3.728059
H106 1.515880 -4.809269 -2.719251
H107 3.567216 2.294799 -2.519775
H108 2.067560 1.902832 -2.222822
H109 0.276037 7.218363 3.271205
H110 -0.509670 6.111148 3.810913
H111 1.204389 5.905550 6.789951
H112 0.331954 7.151500 6.244603
H113 -4.256291 -0.780747 8.038617
H114 -3.525024 0.233283 8.995136
H115 -6.546328 3.954682 6.266333
H116 -7.409965 5.163558 5.700695
H117 5.098858 -4.999090 3.488992
H118 6.670994 -4.393052 3.663821
H119 2.545678 2.819155 -7.936219
H120 2.044274 2.438816 -6.375791
H121 10.075029 -7.593882 7.165724
H122 11.517593 -6.993587 6.849950
H123 -5.077017 -9.734894 2.490701
H124 -3.545171 -10.278801 2.424721
H125 4.174026 -2.531601 5.590032
H126 5.366515 -3.337253 5.073263
H127 3.017964 -6.332573 -8.864884
H128 3.618605 -5.909922 -10.164733
