192
1 12.414492 0.000000 0.000000 0.000000 12.414492 0.000000 0.000000 0.000000 12.414492
O1 -7.829911 -5.074520 5.584939
O2 6.326582 12.939820 -4.342808
O3 11.080696 0.211233 2.476425
O4 -5.111022 -2.406250 -0.393298
O5 -4.707522 -12.234122 -0.407849
O6 4.844390 -1.764935 -5.709975
O7 -4.098953 -8.198913 -4.421162
O8 -1.828084 2.801674 -3.795470
O9 0.331345 14.892330 -5.382100
O10 9.176364 -8.371163 12.231563
O11 -1.224943 1.679317 0.210092
O12 -3.224005 0.686731 9.561004
O13 -0.136111 6.289013 5.805415
O14 5.119009 9.564220 -2.040332
O15 -6.855764 -12.343024 -1.881239
O16 0.591765 3.991955 -1.046963
O17 3.411448 -11.737157 -7.726403
O18 -11.297836 -2.456677 -8.115946
O19 -1.585533 4.988448 -2.099313
O20 1.227789 4.178270 5.266328
O21 5.571518 7.126998 -0.331035
O22 2.663719 8.728424 -1.764402
O23 -5.977724 -8.888331 -0.773535
O24 -5.014903 -8.851844 -6.825509
O25 -5.310584 -12.825192 -8.507527
O26 10.665144 -2.995194 4.023080
O27 5.804171 3.788624 1.902224
O28 2.453952 2.680407 -2.674884
O29 -4.260127 -1.785772 -4.076691
O30 -10.986157 -11.970591 2.855104
O31 3.446200 -2.879051 2.525291
O32 -2.588878 -2.546257 10.263880
O33 0.763611 -9.026186 2.794692
O34 -0.433456 7.362426 -9.037680
O35 -13.117563 -0.702978 -2.028216
O36 -1.315329 7.605106 9.234030
O37 -8.485302 -7.789982 8.659416
O38 5.781683 1.148729 -6.858309
O39 0.752527 -4.194584 7.557994
O40 -1.702492 -11.196127 5.277849
O41 -3.984898 6.674008 -0.493610
O42 -6.367901 -3.665027 8.230678
O43 0.687333 -2.137223 -12.855950
O44 -1.821373 -2.226645 0.648548
O45 2.604363 -0.852421 0.738524
O46 -5.215522 7.789913 -9.036773
O47 2.257330 -6.602664 -0.233792
O48 7.681085 1.729521 2.128059
O49 -8.302811 4.606134 -6.677173
O50 13.847421 12.872635 -3.946746
O51 2.223571 -5.345124 2.008150
O52 3.511437 1.307936 -0.600945
O53 -2.619354 6.548124 -5.374424
O54 3.187863 -5.101786 -4.344600
O55 -7.487235 6.461098 3.120851
O56 9.401201 2.987613 -8.462959
O57 -6.113656 5.732588 9.291245
O58 3.162074 3.692624 1.169443
O59 5.577452 10.029038 -8.202626
O60 8.880399 -4.129621 1.411931
O61 -3.197396 -1.024414 5.376904
O62 -5.070481 6.512401 5.795284
O63 -1.890510 4.687874 2.130265
O64 -10.553867 -1.829503 6.726165
H1 -8.181593 -4.968022 6.571788
H2 -6.877039 -5.198072 5.783223
H3 7.070496 12.345148 -4.474699
H4 6.104773 12.879417 -3.402341
H5 12.060442 -0.007658 2.594752
H6 11.206435 0.925256 1.806254
H7 -5.791065 -2.676792 -1.063843
H8 -4.987659 -3.138885 0.265478
H9 -4.724044 -13.162465 -0.107552
H10 -4.762895 -11.615518 0.313311
H11 5.337422 -0.994820 -5.336814
H12 5.330147 -2.048225 -6.630020
H13 -3.242567 -8.813833 -4.217095
H14 -3.627209 -7.373026 -4.726429
H15 -2.359805 2.004398 -3.440346
H16 -1.715693 3.566593 -3.164715
H17 0.775956 14.073444 -4.989656
H18 -0.575901 15.012416 -4.906263
H19 8.233819 -8.643337 12.301422
H20 9.402060 -8.255553 13.222992
H21 -0.823516 2.569577 -0.068469
H22 -1.981054 1.606503 -0.461465
H23 -3.661100 0.946286 10.431441
H24 -3.815329 -0.011417 9.096220
H25 0.536978 5.554183 5.775259
H26 0.243912 6.998065 6.430405
H27 4.179027 9.375357 -1.772453
H28 5.322338 9.104742 -2.872180
H29 -7.043097 -13.365834 -1.944239
H30 -5.959133 -12.144635 -1.381321
H31 0.985168 3.467645 -1.850265
H32 1.278632 4.651765 -0.776963
H33 3.074119 -12.476552 -7.227250
H34 4.406186 -11.660553 -7.548192
H35 -10.582649 -2.572491 -8.797844
H36 -12.242941 -2.509755 -8.429904
H37 -0.806628 4.601707 -1.669483
H38 -2.214478 4.653828 -1.375064
H39 0.965880 3.423067 5.914016
H40 2.224634 4.299691 5.289083
H41 5.260584 7.997890 -0.019098
H42 5.498597 7.113391 -1.322723
H43 1.905559 9.231511 -1.304918
H44 2.516808 8.335475 -2.626843
H45 -6.453833 -8.618691 0.083137
H46 -6.378035 -8.392594 -1.475137
H47 -5.512302 -9.679038 -6.943769
H48 -4.545356 -8.797043 -5.975583
H49 -4.501326 -13.236881 -8.188796
H50 -5.128355 -12.185273 -9.269506
H51 11.082307 -3.898614 3.847177
H52 10.465280 -2.810837 3.072973
H53 5.694464 4.545710 2.535036
H54 4.884431 3.655160 1.649524
H55 3.128913 3.251059 -3.028674
H56 2.199982 1.967089 -3.398990
H57 -3.427717 -2.069250 -3.437852
H58 -3.861840 -1.681468 -4.969785
H59 -11.132972 -10.909077 2.739175
H60 -10.164273 -11.878710 3.326365
H61 3.326957 -2.007228 2.086887
H62 4.248278 -2.795654 3.124448
H63 -2.072969 -1.762259 10.660290
H64 -3.401841 -2.651178 10.795221
H65 1.049631 -8.743871 3.736833
H66 1.486100 -8.611306 2.233702
H67 -0.469423 6.861710 -8.151716
H68 -0.885107 6.731588 -9.635351
H69 -12.984372 0.184791 -1.622629
H70 -12.542317 -1.279221 -1.464342
H71 -1.320413 6.802227 9.761905
H72 -1.735724 8.233872 9.750634
H73 -8.374024 -7.904646 7.673576
H74 -7.618964 -7.656129 9.025606
H75 6.497168 0.570385 -7.212412
H76 5.862698 1.045778 -5.862704
H77 -0.087808 -4.112510 8.167791
H78 1.067424 -3.253061 7.217491
H79 -1.502517 -11.245685 4.294615
H80 -0.833973 -11.029768 5.799352
H81 -4.945339 6.509511 -0.581127
H82 -3.639586 5.785726 -0.321606
H83 -6.787095 -3.170937 7.504495
H84 -5.532131 -3.200680 8.221663
H85 1.468293 -1.766762 -12.337498
H86 0.040826 -2.378291 -12.139103
H87 -1.893571 -1.458911 1.242328
H88 -2.523751 -2.786317 0.994690
H89 2.093886 -0.357529 1.397980
H90 2.849348 -0.141065 0.052208
H91 -5.860213 7.143994 -9.463219
H92 -5.002069 7.367663 -8.138242
H93 2.597035 -5.854251 -0.823461
H94 2.159689 -6.046533 0.559615
H95 8.204336 2.243023 2.735032
H96 6.762321 2.053486 2.291591
H97 -7.864329 3.934379 -7.294666
H98 -8.157187 5.566782 -6.938757
H99 14.096112 12.159457 -4.569174
H100 13.153368 12.457637 -3.318035
H101 2.683679 -4.467171 2.089138
H102 1.470209 -5.446824 2.646562
H103 3.182574 1.928760 -1.304096
H104 4.265550 0.766208 -1.045469
H105 -2.193533 7.018846 -4.649508
H106 -1.899421 6.316123 -5.969753
H107 3.263030 -6.098673 -4.094291
H108 2.259670 -5.019461 -4.662612
H109 -8.303698 6.593382 2.664970
H110 -7.769467 6.753104 3.962443
H111 9.773022 2.323703 -7.782878
H112 8.685080 3.412670 -7.912902
H113 -6.254650 6.613341 8.804995
H114 -5.272130 5.297900 9.002877
H115 3.020623 4.246472 0.324775
H116 3.058474 2.747644 0.821672
H117 6.251516 10.802388 -8.588817
H118 6.024085 9.168454 -8.313669
H119 8.385106 -4.405864 2.215636
H120 8.765731 -4.942642 0.735025
H121 -2.544852 -0.322405 5.454628
H122 -2.745941 -1.868881 5.078797
H123 -4.274728 6.786605 6.320612
H124 -5.155626 5.520601 5.660403
H125 -2.279806 4.144979 2.891453
H126 -1.066082 4.168023 1.886752
H127 -9.586532 -1.749720 6.852321
H128 -10.768084 -1.738321 5.746572
