192
1 12.414492 0.000000 0.000000 0.000000 12.414492 0.000000 0.000000 0.000000 12.414492
O1 18.008541 -7.086019 2.780932
O2 8.022561 -6.013038 1.689506
O3 -0.301158 -10.076858 -0.799164
O4 6.576395 2.969933 -0.575001
O5 -0.160793 1.319535 1.793474
O6 12.498063 4.763750 -2.890821
O7 5.404566 -3.054602 -3.120989
O8 -6.705695 0.380522 3.397836
O9 8.774941 -4.564682 -8.612962
O10 -6.037967 -2.248446 -5.579251
O11 -3.213590 4.253122 -0.474242
O12 0.809256 -8.822307 -6.349256
O13 -2.475734 2.477341 2.204952
O14 -1.945897 -0.949162 5.256545
O15 -3.600624 -1.436490 -4.848453
O16 -9.609222 4.707322 -4.477968
O17 -2.129876 3.819625 8.011854
O18 10.503587 6.838315 -1.087698
O19 0.313595 4.881542 15.140366
O20 -8.419632 -9.931904 -0.410577
O21 -0.644378 -1.820217 -2.259042
O22 7.871170 0.683048 -1.400202
O23 -9.041909 -3.557235 1.694458
O24 -0.329767 13.326671 9.317408
O25 1.996456 10.512109 11.387963
O26 0.332320 5.793501 0.300867
O27 9.031298 -6.600855 -6.676528
O28 -1.746538 1.713917 6.392899
O29 -2.811404 6.774237 -3.918688
O30 -2.420741 -0.292602 -0.157569
O31 -1.745532 11.811286 2.559192
O32 -3.065380 -2.857036 -13.417997
O33 5.138524 -6.338954 -5.239248
O34 -4.183787 -11.677916 -8.880310
O35 3.190518 0.223959 -1.919767
O36 1.583221 11.172243 1.879422
O37 1.990428 2.758840 3.599403
O38 -9.430216 8.467179 -2.323419
O39 -5.049325 9.981699 3.903379
O40 2.069825 0.243966 -4.118975
O41 -1.882821 9.215867 -3.959910
O42 4.623664 2.637305 2.379911
O43 -15.966030 1.126013 -4.051272
O44 -9.801262 4.663336 10.738445
O45 -6.529152 -2.022408 1.269892
O46 -10.388137 -5.179478 -4.729605
O47 11.392928 -6.540809 -7.494487
O48 3.533222 -4.344127 5.610088
O49 -12.226442 8.469010 0.455250
O50 4.516063 -12.966741 5.936235
O51 -6.477900 2.008517 -4.486732
O52 4.224041 6.730454 11.896576
O53 5.539017 -0.942724 -1.307071
O54 3.494722 2.061081 -5.518894
O55 2.364974 10.818828 4.569065
O56 3.303421 6.533221 3.368215
O57 -5.657938 -7.857707 5.088081
O58 -5.631746 7.913535 -0.174648
O59 12.095838 -4.470294 6.483755
O60 0.466070 -1.700342 -5.803403
O61 7.643346 -10.291868 5.811058
O62 -4.998064 -8.126602 -3.135674
O63 6.747321 -5.630429 9.253001
O64 -1.030709 -3.137443 -9.878589
H1 18.771078 -6.793983 2.242906
H2 18.414518 -7.401622 3.652764
H3 8.586914 -6.817189 1.619723
H4 8.258828 -5.655347 2.631802
H5 -0.626386 -9.319886 -0.333292
H6 -0.257922 -10.840220 -0.097699
H7 7.098088 2.117450 -0.822254
H8 6.662319 3.583986 -1.312046
H9 0.661586 1.504313 2.491794
H10 -0.701930 0.521840 2.170755
H11 12.104516 5.415365 -2.344834
H12 13.366732 4.755557 -2.505183
H13 5.762356 -3.143301 -4.092040
H14 4.552861 -3.451087 -3.048800
H15 -6.739504 -0.440265 2.900902
H16 -6.980352 0.086021 4.345277
H17 8.228121 -3.713267 -8.568575
H18 9.731532 -4.374313 -8.815209
H19 -6.731811 -1.611986 -5.851424
H20 -5.725251 -2.761033 -6.332503
H21 -2.851125 3.528039 0.017863
H22 -3.853839 3.803313 -1.106784
H23 0.667321 -8.744947 -5.418529
H24 0.211284 -8.069978 -6.675149
H25 -2.408453 3.000164 3.008947
H26 -1.559929 2.116083 2.112572
H27 -1.056067 -1.322233 5.591197
H28 -2.600514 -1.033291 6.040983
H29 -3.509972 -0.502417 -4.593294
H30 -4.599754 -1.601210 -5.041679
H31 -8.841223 5.188155 -4.914040
H32 -9.386732 4.616839 -3.519806
H33 -1.428347 4.147463 8.578301
H34 -2.034078 2.883676 7.688766
H35 11.161622 6.321889 -0.604038
H36 9.737392 6.133965 -1.068305
H37 -0.198469 5.313636 15.953772
H38 0.793918 4.119118 15.494786
H39 -8.584384 -10.265931 0.495555
H40 -7.369007 -9.762486 -0.444924
H41 -1.220577 -2.082885 -1.418881
H42 0.268081 -2.066027 -1.932666
H43 7.149832 0.099904 -1.134994
H44 8.700107 0.329598 -0.820377
H45 -9.158415 -4.026954 2.583221
H46 -9.511541 -2.768284 1.819249
H47 -0.412199 12.446934 9.787323
H48 -0.318383 13.934220 10.096456
H49 2.362092 9.654072 10.969680
H50 2.527196 11.341436 11.169958
H51 0.995712 5.207971 -0.165892
H52 0.394860 5.547819 1.259404
H53 9.396034 -6.421557 -5.701101
H54 9.018665 -5.722588 -7.037367
H55 -0.965300 2.197838 6.116211
H56 -1.611990 0.890429 5.941664
H57 -2.543162 7.766915 -3.927877
H58 -2.424595 6.460156 -3.062377
H59 -2.456424 -1.231220 -0.396166
H60 -2.365222 -0.155824 0.855561
H61 -1.557984 10.835496 2.397586
H62 -2.095363 11.819142 3.514055
H63 -3.537337 -2.659015 -14.272784
H64 -2.683384 -3.735976 -13.528058
H65 5.699105 -6.586209 -6.056581
H66 5.677472 -5.812646 -4.614879
H67 -3.690213 -11.550555 -9.743156
H68 -5.094970 -11.977809 -9.033071
H69 3.308480 1.113614 -1.579237
H70 2.826094 0.284018 -2.894733
H71 0.732497 11.389411 2.278660
H72 1.443821 10.841631 0.965198
H73 2.919697 2.760514 3.285726
H74 2.021719 2.585865 4.541484
H75 -9.644244 7.823714 -3.064338
H76 -9.147406 7.865515 -1.590156
H77 -5.559887 10.170308 3.058110
H78 -4.308477 10.639154 3.940879
H79 2.379343 0.942711 -4.704601
H80 1.175085 0.679954 -3.762630
H81 -1.417334 9.688049 -3.178829
H82 -2.600614 9.886238 -4.237888
H83 5.231791 1.968771 2.836402
H84 5.124216 3.432691 2.381046
H85 -16.673866 1.048480 -3.329440
H86 -15.132518 1.077370 -3.515733
H87 -9.094943 5.294755 11.040001
H88 -9.506366 3.728419 11.019429
H89 -6.555351 -1.434255 0.404351
H90 -7.431121 -2.427747 1.456940
H91 -9.827655 -4.949137 -5.541944
H92 -10.322110 -6.150646 -4.642372
H93 10.496672 -6.889419 -7.221932
H94 11.533071 -5.831981 -6.858728
H95 3.436401 -4.917828 4.762584
H96 4.322095 -4.779507 6.081627
H97 -11.266537 8.292401 0.579904
H98 -12.589096 7.573615 0.465150
H99 4.140244 -12.172819 6.457686
H100 3.798936 -13.482019 5.530509
H101 -6.152662 2.888766 -4.173044
H102 -5.828868 1.916001 -5.306206
H103 3.726110 6.900234 12.774052
H104 5.039708 7.258909 11.980257
H105 4.863351 -0.235877 -1.592116
H106 5.448097 -1.741940 -1.900645
H107 3.194742 3.005691 -5.384295
H108 4.434213 2.096281 -5.067925
H109 1.463520 10.663179 4.984813
H110 2.143906 10.988438 3.647991
H111 2.570858 5.912943 3.158627
H112 4.161349 6.092386 3.154538
H113 -4.888137 -7.304233 5.435564
H114 -5.378855 -8.830921 5.254465
H115 -5.356344 8.771507 0.275278
H116 -5.091246 7.335629 0.389071
H117 12.929043 -4.898418 6.833400
H118 11.442585 -4.425877 7.273889
H119 1.029477 -1.143368 -5.122614
H120 0.318945 -2.644425 -5.506126
H121 7.869154 -10.938549 5.145488
H122 8.506274 -10.054493 6.149174
H123 -5.295782 -7.198221 -3.240222
H124 -4.087315 -8.196941 -3.491363
H125 7.735801 -5.444327 9.111914
H126 6.414836 -5.046628 9.926595
H127 -0.351332 -3.109239 -9.169445
H128 -0.398045 -3.299652 -10.653919
