192
1 12.414492 0.000000 0.000000 0.000000 12.414492 0.000000 0.000000 0.000000 12.414492
O1 -1.322592 -15.796920 1.552110
O2 -0.591658 3.695182 2.996174
O3 9.765155 1.643023 -0.536917
O4 -2.722591 2.995758 6.092801
O5 -8.568776 -1.478720 2.242830
O6 9.196169 -3.544056 3.277740
O7 -0.472412 3.325205 0.320606
O8 -4.171802 -1.597912 -5.633731
O9 6.007577 6.241555 -1.654235
O10 -10.259396 -12.612580 -1.718903
O11 9.529492 -3.169042 -0.730051
O12 -0.902631 8.097671 6.951698
O13 10.544194 -7.279629 4.699030
O14 -5.251525 1.216990 -4.012774
O15 -4.510046 5.544989 0.154652
O16 -2.585301 -11.619481 -3.204756
O17 3.673065 -2.300658 -0.099511
O18 2.811506 7.266024 -2.601781
O19 -5.847424 -1.529688 -3.015093
O20 -10.914575 -7.382116 2.102117
O21 5.177849 2.446470 2.186821
O22 8.015009 -9.662625 3.737874
O23 -4.617439 3.421873 -1.511804
O24 0.692645 11.769790 -16.304732
O25 -6.124747 -12.046634 -8.936587
O26 2.699054 -7.714931 -2.893453
O27 -7.016655 2.151349 10.423139
O28 0.834986 9.071815 -3.660289
O29 -4.457788 -1.621344 1.235200
O30 0.694568 -1.418730 1.708360
O31 6.081464 0.063289 -6.441400
O32 -0.633437 5.555818 -1.378184
O33 0.148169 5.780565 6.292041
O34 0.773959 7.023335 -11.831506
O35 -7.417357 6.871015 1.963658
O36 5.384684 8.367096 -3.423379
O37 4.126383 0.453172 -4.219576
O38 -7.416840 -6.234326 5.925405
O39 -6.847587 -12.941755 12.187713
O40 9.388845 -5.729380 -4.636939
O41 3.732891 16.805213 12.608763
O42 5.814281 4.555120 -4.158529
O43 1.456419 -10.027325 5.327369
O44 -1.656838 -1.701094 -2.677085
O45 -6.427580 -7.924548 3.783891
O46 3.160541 7.548009 -0.039053
O47 -6.980886 8.573007 4.894195
O48 -0.351592 1.871424 7.287417
O49 -3.008123 6.889882 -1.652348
O50 -0.856314 -0.224691 -8.562748
O51 8.387573 -6.136243 2.726926
O52 5.990020 -3.212617 2.109025
O53 3.901337 -1.650854 5.776957
O54 7.239893 8.155452 -5.456236
O55 2.034124 -2.957551 3.598469
O56 1.261137 0.779173 0.469377
O57 -3.221752 0.950302 2.385810
O58 -9.022628 -9.587019 -5.144357
O59 1.241920 -1.027716 5.759688
O60 2.525746 6.659199 -8.286424
O61 -2.130588 -2.232501 -7.233126
O62 0.167036 4.028944 8.705167
O63 8.684012 4.070298 -4.010644
O64 -9.426418 1.042753 3.136292
H1 -0.789447 -16.596007 1.416720
H2 -1.933557 -16.027287 2.314445
H3 -1.177755 4.370741 3.450251
H4 -0.259953 3.116447 3.704052
H5 10.371358 2.363314 -0.249471
H6 8.997688 2.190880 -0.766556
H7 -1.917343 2.433281 6.183635
H8 -3.173512 3.008805 6.963206
H9 -9.109961 -2.047798 2.857585
H10 -8.752358 -1.777911 1.324399
H11 9.423389 -3.042849 4.112336
H12 8.599409 -2.847172 2.775125
H13 -0.740998 4.197489 -0.109494
H14 -0.586592 3.448932 1.295194
H15 -4.863467 -1.107763 -6.140566
H16 -4.570406 -1.560826 -4.769915
H17 5.713626 5.585390 -2.341106
H18 6.649262 5.919785 -0.996919
H19 -9.754338 -13.299936 -1.254179
H20 -10.524187 -12.016876 -0.991142
H21 10.064667 -3.264110 0.152041
H22 8.826788 -2.542925 -0.441302
H23 -0.367601 8.635495 7.602109
H24 -1.228799 8.703348 6.242056
H25 10.164641 -8.066170 5.141734
H26 11.108959 -6.927751 5.409860
H27 -5.507522 0.258059 -3.800026
H28 -4.350182 1.289759 -3.722806
H29 -3.684888 5.881870 -0.371567
H30 -4.358237 5.680979 1.153873
H31 -2.581261 -11.116467 -2.350354
H32 -1.909857 -11.164539 -3.768019
H33 4.461256 -2.264144 -0.669664
H34 3.298363 -3.255769 -0.172961
H35 2.876025 7.006420 -1.644032
H36 3.720624 7.659530 -2.693282
H37 -6.431928 -2.336029 -2.957966
H38 -6.276897 -1.005147 -2.297580
H39 -10.540125 -6.830327 2.778019
H40 -11.681052 -7.838233 2.485198
H41 4.490880 1.950702 2.670413
H42 4.831148 2.746441 1.323272
H43 8.504828 -9.553959 4.590904
H44 7.271152 -8.975183 3.599580
H45 -4.425618 4.061029 -0.788721
H46 -5.605172 3.354841 -1.634448
H47 -0.011021 11.121238 -16.031951
H48 1.334869 11.863770 -15.505497
H49 -6.040980 -11.330687 -9.602304
H50 -6.895158 -12.557486 -9.364060
H51 2.971897 -7.963409 -1.970635
H52 2.958504 -6.768120 -2.921361
H53 -7.653969 2.919997 10.281036
H54 -6.596420 2.040700 9.546985
H55 1.445206 8.327111 -3.288754
H56 1.357698 9.904454 -3.844724
H57 -5.191482 -1.849073 1.873210
H58 -4.037789 -0.757795 1.586344
H59 0.693058 -0.661660 1.109658
H60 -0.096749 -1.987529 1.525950
H61 6.452399 0.834645 -5.949953
H62 6.188030 0.413768 -7.357602
H63 -1.415727 6.033552 -1.716491
H64 -0.634153 4.942147 -2.098853
H65 0.058587 6.811299 6.419425
H66 0.803766 5.684082 5.624991
H67 0.911355 6.138067 -11.395213
H68 0.300935 6.700939 -12.666094
H69 -6.828081 7.778211 2.114835
H70 -8.029748 6.956695 2.719549
H71 5.865609 8.276920 -4.317843
H72 5.747570 7.696970 -2.797716
H73 3.535077 0.163751 -3.513798
H74 3.964099 -0.118533 -4.981408
H75 -7.054361 -6.930454 5.316846
H76 -7.251881 -6.593467 6.848603
H77 -6.893299 -11.974245 11.884038
H78 -5.919028 -13.032448 12.575277
H79 8.649709 -5.305470 -5.138901
H80 10.180357 -5.161265 -4.945107
H81 4.413686 17.522374 12.537145
H82 3.263134 17.091638 13.423735
H83 5.131761 3.786415 -4.330417
H84 6.707497 4.179052 -4.290661
H85 0.947652 -10.259369 6.097050
H86 2.314561 -9.845005 5.749211
H87 -2.269562 -0.959675 -2.519680
H88 -2.024535 -2.506723 -2.355319
H89 -5.705089 -7.312568 3.376752
H90 -6.927926 -8.467066 3.062712
H91 2.157976 7.346685 0.265529
H92 3.745024 7.150933 0.663162
H93 -7.715843 9.113902 5.293179
H94 -7.272237 7.641475 5.087481
H95 0.122755 1.082716 7.658302
H96 -0.065374 2.553098 7.897431
H97 -3.041374 7.032918 -2.630328
H98 -2.995054 7.736562 -1.127893
H99 -0.480705 -0.755982 -9.259721
H100 -1.673490 0.228096 -8.963468
H101 8.715520 -5.223602 2.790208
H102 9.088728 -6.695935 3.244452
H103 6.236097 -3.392268 3.017254
H104 5.130955 -2.664873 2.151752
H105 2.982557 -1.239109 5.740221
H106 4.634112 -0.981546 5.782011
H107 7.687358 9.083001 -5.462239
H108 6.728452 8.414913 -6.294844
H109 1.415313 -2.636939 2.932235
H110 1.600944 -2.503436 4.394748
H111 1.927171 1.121935 1.041731
H112 0.617728 1.558582 0.295000
H113 -3.121548 1.293024 1.455794
H114 -3.548429 1.654334 3.018752
H115 -8.840629 -10.533637 -4.722401
H116 -9.583706 -9.087528 -4.527940
H117 0.916745 -1.015632 6.705821
H118 0.883977 -0.176863 5.471733
H119 3.228689 6.510265 -7.648505
H120 2.457010 7.664360 -8.476228
H121 -2.762539 -1.997535 -6.470837
H122 -1.754864 -1.447569 -7.651453
H123 0.194949 4.604184 7.883136
H124 0.907677 4.332887 9.239647
H125 9.126020 4.974578 -4.140128
H126 8.479929 3.996072 -3.014727
H127 -9.980677 1.101964 3.888997
H128 -9.293663 0.065396 2.937349
