192
1 12.414492 0.000000 0.000000 0.000000 12.414492 0.000000 0.000000 0.000000 12.414492
O1 -4.679812 -7.914155 5.132012
O2 3.898851 7.226705 -3.125140
O3 9.293905 8.760342 1.298787
O4 -8.210001 -3.545276 1.672134
O5 -6.065299 -11.384647 6.033509
O6 8.573799 -3.471404 -7.116335
O7 0.785170 -14.451553 -6.571659
O8 -2.049540 3.626661 -6.528812
O9 -1.666491 25.709216 -5.521817
O10 10.911989 -2.152053 12.075967
O11 -3.473157 1.152047 0.612062
O12 -9.735534 3.815594 6.549749
O13 0.198157 11.119704 1.629937
O14 -2.340677 13.696022 -1.881637
O15 -12.045639 -10.459247 -2.463319
O16 6.660181 -1.469858 -2.844667
O17 -7.487453 -18.392359 -7.245000
O18 -10.541484 -3.787593 -4.852953
O19 4.533342 4.814408 -4.065276
O20 -1.410885 4.151854 8.475518
O21 12.820803 6.183097 8.343128
O22 -4.033711 14.363220 -4.262666
O23 -7.050855 -13.819536 -5.355115
O24 -5.113690 -7.760017 -4.426136
O25 0.590492 -7.488882 -19.496164
O26 13.485028 1.424006 7.181033
O27 8.325990 -0.636151 5.310707
O28 6.087897 1.667559 -0.531232
O29 1.193257 -2.719984 -2.499047
O30 -6.005524 -20.314726 0.633403
O31 3.536541 -0.980453 2.714707
O32 -2.009011 0.259980 15.215312
O33 -4.431862 -5.599930 -0.790510
O34 -0.083449 7.700814 -12.597513
O35 -14.246916 7.777544 -4.304390
O36 1.040242 9.141739 3.376926
O37 -7.375220 -9.508102 2.592719
O38 3.125785 -0.090745 -3.968388
O39 -6.086925 -6.037792 2.698013
O40 1.078578 -11.489999 12.783269
O41 -7.432533 2.110050 -2.935149
O42 1.136372 -7.874862 10.592540
O43 -2.860360 -1.548035 -15.148454
O44 -5.695231 -4.152798 9.736363
O45 3.190422 -7.753416 1.742656
O46 -2.966008 6.459437 -9.377982
O47 3.086052 -5.259904 3.193326
O48 16.203473 4.211290 -0.802837
O49 -5.262756 -1.173867 -12.324739
O50 13.078335 15.900000 1.893798
O51 -3.514756 -7.659070 -2.347409
O52 -1.098985 7.380202 4.924282
O53 -8.334244 14.486731 -7.376506
O54 10.221295 -8.344742 0.668799
O55 -8.798867 0.187095 -0.137527
O56 10.531134 -2.152903 -5.106567
O57 -12.681615 14.412051 16.661315
O58 5.914383 0.079630 2.174726
O59 3.535105 10.430820 -1.719379
O60 3.155080 -4.259591 -0.633905
O61 -8.195979 -3.440808 6.145104
O62 -5.446140 -2.812717 2.724207
O63 -4.479458 7.053655 -4.825938
O64 -10.538529 0.157657 4.822697
H1 -5.007910 -7.804815 6.042216
H2 -4.495387 -6.994065 4.763054
H3 3.130519 7.647262 -3.590865
H4 3.798156 7.377536 -2.115804
H5 9.690096 8.149285 1.959929
H6 8.446546 9.004320 1.790209
H7 -8.614393 -4.242899 2.398588
H8 -8.591889 -2.618079 1.942197
H9 -5.563232 -11.040838 6.738256
H10 -5.331016 -12.072774 5.669916
H11 8.402394 -4.072567 -6.307172
H12 7.732164 -3.441243 -7.652879
H13 1.304206 -15.125979 -5.952230
H14 1.241836 -13.595659 -6.669088
H15 -2.090754 3.500464 -5.574792
H16 -2.786815 4.222882 -6.726108
H17 -0.716985 25.691738 -5.529559
H18 -1.854524 24.779796 -5.243187
H19 10.324727 -2.592395 12.713577
H20 11.693374 -1.856661 12.710711
H21 -2.853364 1.015018 -0.118133
H22 -3.000733 0.686257 1.393465
H23 -9.079443 4.115596 7.289017
H24 -10.534942 4.331647 6.594635
H25 0.809583 11.789511 1.280490
H26 0.656854 10.343706 2.028053
H27 -2.319552 12.792617 -2.333037
H28 -2.873088 14.193027 -2.527106
H29 -12.997777 -10.718740 -2.388597
H30 -11.774781 -10.764218 -3.326591
H31 7.611129 -1.194515 -2.932186
H32 6.079103 -1.446420 -3.597164
H33 -7.641927 -19.190396 -6.745208
H34 -6.792290 -18.678582 -7.925813
H35 -10.870520 -3.158764 -4.144958
H36 -11.109787 -4.603111 -4.711429
H37 4.428434 4.235006 -3.317044
H38 4.256750 5.689573 -3.679308
H39 -0.911860 3.587019 9.078986
H40 -2.218003 4.259057 9.049615
H41 12.527461 5.366630 7.855685
H42 13.024431 5.832694 9.278813
H43 -3.207227 14.298388 -4.812225
H44 -4.284753 15.383875 -4.251329
H45 -7.296705 -14.705644 -5.825315
H46 -6.655598 -13.404466 -6.105871
H47 -4.792285 -6.770786 -4.680837
H48 -6.085976 -7.743064 -4.224932
H49 -0.430444 -7.570435 -19.481732
H50 0.720551 -6.564839 -19.816085
H51 13.828812 2.232644 6.866696
H52 14.247006 0.915184 7.302960
H53 8.650509 -0.372495 4.404254
H54 8.149613 -1.630455 5.469036
H55 7.054217 1.567852 -0.258134
H56 5.891282 1.797541 -1.505446
H57 1.932555 -2.261219 -2.083880
H58 0.342483 -2.475283 -2.026076
H59 -5.610781 -21.215200 0.776279
H60 -5.459198 -19.941933 -0.086805
H61 4.483015 -0.559013 2.838071
H62 2.939220 -0.768506 3.437521
H63 -1.607798 0.956270 15.764765
H64 -1.371652 -0.474830 15.036552
H65 -4.305630 -5.039270 0.027262
H66 -4.938454 -5.047937 -1.381364
H67 -0.595942 8.445316 -12.996305
H68 -0.678361 7.001833 -12.565004
H69 -13.430140 7.256971 -3.975530
H70 -13.977236 8.688306 -4.340358
H71 0.969173 9.490014 4.259304
H72 1.774171 8.450434 3.282445
H73 -6.532474 -9.125167 2.926199
H74 -7.826861 -9.815330 3.513116
H75 3.813891 -0.550243 -4.516741
H76 3.276422 -0.711225 -3.107566
H77 -5.103141 -6.003459 2.646541
H78 -6.323271 -6.695352 1.978579
H79 0.260427 -11.490171 12.198226
H80 1.907834 -11.571966 12.184333
H81 -8.263328 1.516458 -2.970465
H82 -7.052372 1.933060 -3.805266
H83 0.975341 -8.818610 10.361797
H84 2.080379 -7.864282 10.807544
H85 -2.308238 -1.607193 -15.973742
H86 -2.157916 -1.822420 -14.495995
H87 -6.635626 -4.373139 9.463530
H88 -5.615613 -3.136999 9.688290
H89 3.879417 -8.377974 2.294676
H90 2.239114 -8.065672 1.860746
H91 -2.298656 6.651110 -8.647642
H92 -2.547519 5.774045 -10.018898
H93 3.638795 -5.477712 3.969096
H94 2.982247 -6.097004 2.717597
H95 15.888352 4.485132 0.046294
H96 17.103450 4.012625 -0.622797
H97 -4.452513 -0.736410 -12.607157
H98 -5.936259 -1.077246 -13.071197
H99 13.115044 14.919362 1.770708
H100 12.278745 16.079919 1.339085
H101 -4.132366 -7.607372 -3.111771
H102 -3.604599 -6.863377 -1.830949
H103 -1.226301 7.740023 5.854731
H104 -0.584943 8.104442 4.439961
H105 -8.649480 15.265539 -6.822838
H106 -7.444746 14.253959 -7.019927
H107 9.800952 -8.179599 -0.205141
H108 9.666141 -9.062914 1.031849
H109 -7.940197 0.686492 -0.109912
H110 -8.946429 -0.026875 0.781265
H111 11.390290 -2.181179 -5.535062
H112 9.858650 -1.970544 -5.794865
H113 -13.223270 14.835460 17.371359
H114 -12.157976 15.193297 16.243864
H115 6.389983 -0.292719 1.307565
H116 5.726429 1.070186 2.245808
H117 3.674560 11.145005 -1.127972
H118 3.677497 9.552065 -1.309857
H119 3.629886 -4.063131 0.275212
H120 2.232067 -4.598860 -0.498195
H121 -7.803096 -4.231779 5.757657
H122 -9.019335 -3.651534 6.532692
H123 -6.179857 -3.399148 2.347377
H124 -5.677136 -1.891580 2.376033
H125 -4.895142 7.505497 -3.981060
H126 -3.511076 7.085520 -4.587765
H127 -11.250984 0.801584 4.693596
H128 -9.741178 0.737059 4.720161
