192
1 12.414492 0.000000 0.000000 0.000000 12.414492 0.000000 0.000000 0.000000 12.414492
O1 -13.175334 -2.797825 -0.608812
O2 -6.346803 -2.872203 -7.070785
O3 -8.201527 -0.870390 -3.807861
O4 -2.571467 18.074315 11.993907
O5 -1.485258 -4.588023 1.296304
O6 9.986555 2.704905 -3.318275
O7 1.616758 -12.886123 7.632212
O8 -6.794502 -2.973730 2.731213
O9 6.600475 0.631264 8.403845
O10 -4.704481 -3.295508 -3.325264
O11 -4.783723 -9.920152 -1.860057
O12 -8.067929 -0.667105 3.065456
O13 11.038716 -2.362309 -20.508203
O14 -3.289591 -3.495221 -9.547344
O15 4.687173 -7.424186 6.206214
O16 15.949133 2.387761 9.640379
O17 16.342236 9.597680 6.794775
O18 13.327839 1.677345 -6.118005
O19 7.614884 -1.531845 -5.358144
O20 4.088152 2.801269 0.020222
O21 0.900089 1.775757 -2.586791
O22 1.843383 -3.619637 -3.188421
O23 -10.447133 10.608940 2.627118
O24 -11.399242 5.965535 -15.994701
O25 -5.048336 -5.164952 4.148955
O26 -7.243161 -4.395402 -2.925156
O27 3.283795 8.564487 -0.882244
O28 -6.390182 -3.696798 0.082761
O29 -0.176277 2.051844 3.773278
O30 -1.572747 -3.896312 7.271799
O31 -0.772966 3.932163 0.573778
O32 -11.201181 1.975782 0.096622
O33 -4.275561 -0.739965 14.821236
O34 -18.307598 5.915154 -10.346543
O35 0.412348 6.918056 6.025546
O36 -2.711706 -10.381781 -6.466324
O37 -5.079703 6.508437 -0.502386
O38 -3.414086 -10.114608 0.742798
O39 0.366742 11.543198 -11.717217
O40 -1.857597 4.182003 3.676939
O41 -4.873122 3.297642 2.891185
O42 -2.742638 11.035611 -1.786237
O43 3.667242 4.972402 9.042265
O44 2.038091 6.691588 1.638831
O45 4.948169 0.282283 0.433394
O46 6.190351 -7.705474 10.300151
O47 -7.158489 13.707497 4.784735
O48 3.180174 -5.286453 -6.552061
O49 -5.116881 11.149792 -0.130017
O50 -2.100793 -0.583814 -6.277128
O51 3.009051 -9.321946 5.391420
O52 -1.331435 -12.266499 8.945346
O53 -0.443826 -6.092210 3.277332
O54 1.374713 -2.057167 -7.105630
O55 6.989804 2.613641 6.555987
O56 14.554605 3.559145 -9.530285
O57 -1.103865 7.059865 -2.454573
O58 4.122086 4.841290 2.074917
O59 3.469071 11.134271 -1.389160
O60 -0.184481 -8.405675 7.640444
O61 -9.281022 8.065269 3.506235
O62 -4.861069 -7.224283 -6.436329
O63 8.048921 -6.567242 -3.856425
O64 -1.500627 -0.005651 2.262844
H1 -12.715838 -3.303329 -1.395324
H2 -12.578323 -2.073406 -0.260345
H3 -6.608388 -2.561977 -7.995325
H4 -5.806403 -2.222885 -6.546133
H5 -7.280160 -0.380157 -3.870981
H6 -8.372344 -0.970645 -2.819295
H7 -3.526698 18.292257 11.798016
H8 -2.083236 18.640260 11.329898
H9 -1.716257 -5.276032 0.659112
H10 -1.086354 -3.847849 0.768955
H11 10.680753 3.398182 -3.445503
H12 10.443372 1.883639 -3.675362
H13 2.633464 -13.011562 7.694643
H14 1.391104 -12.561612 8.554983
H15 -6.515396 -3.196524 1.853206
H16 -7.295836 -2.077422 2.693759
H17 6.437350 1.385670 7.752759
H18 6.884516 1.052476 9.231316
H19 -4.275489 -4.090840 -3.648753
H20 -5.649392 -3.536939 -3.020909
H21 -4.715895 -10.383203 -0.979520
H22 -3.868493 -9.745419 -2.248379
H23 -8.964581 -1.128173 3.092498
H24 -7.713339 -0.305566 2.240681
H25 10.238487 -2.816137 -20.943376
H26 11.892886 -2.733429 -20.499414
H27 -2.653362 -3.849185 -10.207110
H28 -3.661088 -4.325497 -9.166220
H29 5.650671 -7.528682 6.026034
H30 4.346797 -6.525470 5.871948
H31 16.425911 1.516021 9.450242
H32 15.052722 2.159752 9.661800
H33 16.525155 10.258354 7.490690
H34 16.956465 9.796025 6.054002
H35 14.261581 2.128201 -6.396444
H36 13.565556 1.054962 -5.403234
H37 7.441654 -0.660203 -4.831343
H38 7.695418 -2.147851 -4.563682
H39 3.168593 2.490464 0.327070
H40 3.894721 2.853990 -0.990556
H41 0.303391 1.148954 -3.012865
H42 0.865472 1.636909 -1.619277
H43 1.663046 -4.446797 -3.738071
H44 1.427437 -3.003883 -3.844141
H45 -11.006081 10.672141 3.446387
H46 -9.997455 9.725695 2.628915
H47 -10.513438 5.532053 -15.735603
H48 -11.797180 5.319343 -16.703428
H49 -5.141847 -5.941051 4.743148
H50 -5.495284 -4.286208 4.640017
H51 -7.052088 -5.357554 -3.032426
H52 -8.071752 -4.046734 -3.264539
H53 2.845582 8.607584 -1.788066
H54 2.609244 8.179328 -0.274822
H55 -7.137783 -4.109468 -0.487777
H56 -5.735615 -4.387878 -0.167882
H57 0.658988 2.519395 3.473954
H58 0.120158 1.633667 4.630375
H59 -2.032903 -3.438569 6.544394
H60 -0.827662 -4.435905 6.851523
H61 -0.843359 4.415619 1.356997
H62 -1.526550 4.296209 -0.016720
H63 -11.476383 1.068151 0.359888
H64 -11.981336 2.557867 0.377090
H65 -4.487608 -0.872422 13.872273
H66 -4.244180 -1.722340 14.945434
H67 -18.358589 6.699363 -9.794065
H68 -17.905912 5.091014 -9.952535
H69 1.375889 7.025542 6.081723
H70 0.021676 6.813469 5.147951
H71 -2.502759 -9.997736 -5.577476
H72 -2.447865 -11.354226 -6.441158
H73 -5.546165 6.383690 0.399286
H74 -5.553721 5.841311 -1.148533
H75 -3.279887 -11.112340 0.761127
H76 -2.508969 -9.780844 0.956239
H77 -0.460013 11.795762 -11.298561
H78 0.916788 11.519556 -10.897020
H79 -1.361215 3.312133 3.781386
H80 -2.772704 3.856915 3.802674
H81 -4.657150 2.730233 2.147709
H82 -5.492120 2.835848 3.376184
H83 -2.092033 10.467670 -1.240652
H84 -3.090426 10.351627 -2.400175
H85 3.850991 5.157908 8.038514
H86 3.487313 4.032884 9.240251
H87 1.251764 6.314384 2.120764
H88 2.544264 5.868335 1.416323
H89 4.817179 1.260250 0.307790
H90 5.902205 0.084935 0.242887
H91 5.298791 -7.936450 10.000206
H92 6.715736 -8.520249 10.439528
H93 -7.978073 14.237343 4.807430
H94 -7.396416 12.777192 4.381697
H95 3.525877 -4.473347 -6.071813
H96 3.135470 -4.887376 -7.457071
H97 -5.686727 10.439134 -0.369621
H98 -4.439111 11.011185 -0.789219
H99 -1.778317 -1.102854 -7.081327
H100 -3.044224 -0.844231 -6.160516
H101 3.486826 -8.535773 5.660966
H102 2.547381 -9.057703 4.621011
H103 -1.672679 -12.574710 8.012809
H104 -1.826707 -12.924426 9.516901
H105 -1.003820 -5.460808 2.756052
H106 -0.952303 -6.911319 3.578390
H107 2.148704 -2.198332 -6.492970
H108 0.688795 -1.835788 -6.403739
H109 6.340934 2.229759 5.874729
H110 7.877457 2.320374 6.222751
H111 14.066331 3.606939 -10.396618
H112 15.367271 4.158771 -9.674830
H113 -0.441536 6.541525 -2.938183
H114 -1.264273 7.806726 -3.131584
H115 4.277193 4.323971 1.235046
H116 5.031859 5.174721 2.352986
H117 3.393944 10.198710 -1.123911
H118 3.999575 11.658390 -0.733211
H119 -0.672179 -7.943290 6.899651
H120 0.275205 -9.246456 7.285540
H121 -8.312465 8.195127 3.342713
H122 -9.639279 7.560887 2.694182
H123 -4.633665 -6.637057 -5.751735
H124 -5.029782 -8.053727 -5.961683
H125 8.972885 -6.784925 -3.550077
H126 7.506736 -7.039639 -3.229483
H127 -1.071985 0.689349 2.773069
H128 -2.300422 -0.362111 2.739915
