192
1 12.414492 0.000000 0.000000 0.000000 12.414492 0.000000 0.000000 0.000000 12.414492
O1 4.283700 4.986269 -6.922755
O2 14.443826 3.099139 5.245207
O3 -1.962265 -4.618114 0.514166
O4 -0.832552 7.117788 -4.954914
O5 -0.533329 -0.285042 4.688103
O6 1.307301 -7.861428 -9.342305
O7 2.830836 -2.630364 -10.590857
O8 -2.864579 -3.908396 -3.750975
O9 -8.978396 -4.426774 -3.156740
O10 10.643495 -8.642443 -6.636710
O11 -5.329270 10.115884 11.673944
O12 -8.180232 -1.341400 -8.521405
O13 7.630442 5.335421 -1.202309
O14 0.621948 0.953875 -3.165252
O15 -0.099551 10.862352 2.022791
O16 -0.458997 4.343594 -3.526417
O17 4.820853 6.422433 7.771568
O18 -1.753938 0.239193 -1.903164
O19 2.003457 2.983945 -4.476168
O20 -1.881472 5.508236 11.196283
O21 1.153072 0.927441 0.795019
O22 -8.976740 2.703127 1.822704
O23 -2.477537 1.632381 3.979099
O24 -2.792124 -9.616650 13.991988
O25 7.729621 0.332275 -5.262567
O26 0.644875 7.465671 0.777885
O27 -3.690993 -4.519568 2.498281
O28 2.410830 6.221861 -0.879309
O29 7.390057 0.365831 3.968859
O30 -6.507420 -0.063515 1.262990
O31 -5.447689 -8.534467 2.081963
O32 -3.359368 0.219634 0.127349
O33 -7.548855 5.044811 0.963663
O34 0.597631 -2.434948 -1.340997
O35 1.814418 -5.285379 3.574374
O36 -8.874948 -0.613566 0.306327
O37 4.492188 -0.056149 -3.962064
O38 7.346374 -5.513773 8.733662
O39 -4.294543 -7.889569 6.946805
O40 -1.746094 -2.755397 4.844196
O41 4.944307 -11.064830 3.787146
O42 -3.294620 -6.145981 4.754891
O43 -15.032354 -2.879822 -1.355069
O44 5.875744 2.809441 6.042640
O45 -5.646685 -4.691218 -12.027924
O46 4.430070 7.512075 1.878800
O47 -5.848310 2.326738 12.236417
O48 1.814280 0.645073 -8.540959
O49 1.496751 3.349442 -0.916125
O50 -7.065637 -2.507433 -3.092816
O51 -4.367382 -2.318271 -8.812679
O52 5.966620 9.965946 -6.431561
O53 -0.555021 7.449495 -7.694287
O54 0.045500 -0.997306 7.554156
O55 3.582068 -3.950541 5.483410
O56 6.152352 -5.164391 -7.992059
O57 6.356541 1.411345 9.203154
O58 2.990280 -1.470001 -6.103766
O59 -10.033474 -0.650954 -2.036809
O60 4.538087 3.526646 -3.399471
O61 0.958234 -3.578431 -3.768359
O62 9.803844 2.435757 -3.076990
O63 -2.666766 -1.658278 -5.176429
O64 -0.522981 -8.309328 1.170784
H1 4.536174 5.683881 -7.642519
H2 3.519980 4.485880 -7.278747
H3 13.791277 3.803551 4.913970
H4 14.333536 2.231236 4.713577
H5 -2.479342 -4.581350 1.338450
H6 -0.962724 -4.724868 0.612111
H7 -0.782849 6.122950 -4.807374
H8 -1.626824 7.415414 -4.420303
H9 -0.464004 -0.506173 5.675128
H10 -1.339296 0.327719 4.523397
H11 2.129497 -8.443419 -9.457578
H12 1.541529 -6.908240 -9.242200
H13 3.279654 -2.283617 -9.779995
H14 1.841289 -2.761762 -10.354784
H15 -3.707921 -4.470313 -3.782435
H16 -2.715574 -3.502835 -2.781468
H17 -9.877623 -4.040749 -3.390911
H18 -8.381206 -3.628885 -3.202308
H19 10.668274 -7.741686 -7.060028
H20 9.804080 -8.616855 -6.116048
H21 -5.651871 9.882089 10.763177
H22 -4.357712 10.001531 11.615855
H23 -8.876867 -1.266380 -7.800956
H24 -7.385216 -1.725578 -8.078025
H25 8.626427 5.303296 -1.341382
H26 7.516370 6.115108 -0.473274
H27 1.325707 0.641723 -2.565026
H28 1.143322 1.490047 -3.840917
H29 0.208489 11.425666 1.319632
H30 -0.004388 11.422438 2.811296
H31 -1.161733 3.671108 -3.549208
H32 -0.868887 4.796037 -2.769262
H33 3.992029 6.838490 8.118529
H34 4.558396 5.933767 6.906705
H35 -0.825095 0.502490 -1.880057
H36 -2.132601 0.212159 -0.933708
H37 1.898798 2.958450 -5.445793
H38 1.364444 3.559921 -4.072974
H39 -1.741599 6.324496 11.647235
H40 -1.492135 4.790602 11.771280
H41 1.906546 0.357055 0.455489
H42 1.207820 1.749444 0.214719
H43 -9.535794 1.976764 1.442000
H44 -8.422510 2.279024 2.495507
H45 -2.242348 2.277266 4.701131
H46 -2.291953 2.196888 3.149998
H47 -3.642008 -9.169461 14.092706
H48 -1.979325 -9.058327 13.814603
H49 7.758101 0.744968 -6.166171
H50 7.235408 0.927082 -4.598358
H51 1.093817 7.637528 1.676523
H52 1.402867 7.102747 0.232511
H53 -3.536109 -5.170175 3.235431
H54 -3.979288 -3.635192 3.025101
H55 2.754203 6.630975 -1.671079
H56 3.271660 6.188637 -0.351135
H57 8.165072 0.985920 3.913780
H58 6.593902 0.796905 3.589953
H59 -6.102296 -0.826110 0.821289
H60 -6.174988 0.657297 0.758001
H61 -6.036852 -7.838915 1.718706
H62 -6.020931 -8.861707 2.787976
H63 -3.348833 -0.312742 0.975115
H64 -3.183178 1.184578 0.441671
H65 -7.986490 5.894171 1.291445
H66 -8.304008 4.435913 1.279889
H67 0.547418 -2.870611 -2.215873
H68 1.044343 -3.113321 -0.796217
H69 0.917036 -5.201409 4.047181
H70 2.397098 -4.771695 4.110647
H71 -8.977782 -1.431457 0.737958
H72 -7.964871 -0.337829 0.606275
H73 3.596456 -0.142712 -3.516808
H74 5.082364 0.383918 -3.342318
H75 6.422220 -5.608007 8.290947
H76 7.144994 -5.814561 9.695853
H77 -4.670829 -7.137303 7.533877
H78 -5.059787 -8.424767 6.614687
H79 -2.097174 -2.456710 5.748342
H80 -1.222152 -2.041993 4.433582
H81 4.460163 -11.987797 3.688120
H82 4.883243 -10.758096 4.716929
H83 -2.282915 -5.880694 4.752853
H84 -3.481556 -6.579227 5.620430
H85 -14.253376 -2.317761 -1.517841
H86 -14.715750 -3.425171 -0.559500
H87 5.358982 2.671612 6.850355
H88 5.310219 3.502659 5.608913
H89 -5.734196 -3.770480 -12.362623
H90 -5.116127 -4.548745 -11.103621
H91 3.870430 8.289268 1.658406
H92 5.270779 7.586983 1.332704
H93 -6.403407 2.896155 11.650292
H94 -5.731354 2.843541 13.055019
H95 0.962156 0.414256 -8.130630
H96 1.641684 0.800943 -9.492768
H97 0.896288 3.394539 -1.674333
H98 1.806466 4.279161 -0.754884
H99 -6.477253 -2.683146 -3.803341
H100 -7.498509 -1.638559 -3.382154
H101 -3.540318 -2.394875 -8.322566
H102 -4.661635 -1.369618 -8.676384
H103 6.487606 10.797392 -6.331114
H104 6.555604 9.479481 -7.083837
H105 -0.379269 7.258971 -6.726513
H106 -1.045825 8.385709 -7.702527
H107 -0.892569 -1.086047 7.771284
H108 0.234152 -0.231890 8.187797
H109 3.183138 -4.563199 6.146593
H110 4.516520 -4.201324 5.499179
H111 5.759901 -4.974817 -8.872477
H112 7.067963 -5.495105 -8.090087
H113 5.806308 2.261870 9.132085
H114 6.728625 1.374197 10.084187
H115 3.444976 -0.896205 -5.458685
H116 3.538711 -2.234014 -5.954335
H117 -10.729187 -1.346894 -1.846645
H118 -9.467093 -0.592678 -1.287975
H119 3.699044 3.382507 -4.031116
H120 4.842340 4.440422 -3.567177
H121 0.509588 -4.368847 -4.201526
H122 0.541456 -2.758943 -4.198978
H123 9.239472 1.971037 -3.724359
H124 10.024220 1.719537 -2.433802
H125 -3.339740 -0.944355 -4.839911
H126 -2.686924 -2.552053 -4.623001
H127 0.164690 -8.752041 0.609788
H128 -0.083065 -8.207288 2.011970
