192
1 12.414492 0.000000 0.000000 0.000000 12.414492 0.000000 0.000000 0.000000 12.414492
O1 -6.656075 -7.367806 9.208022
O2 9.058550 13.128387 -2.077289
O3 11.479920 3.709156 4.392927
O4 -7.524641 -2.101530 -1.459364
O5 -0.330292 -12.218470 -1.235949
O6 5.549438 -2.665759 -7.232585
O7 -5.638380 -8.590446 -5.445424
O8 -3.815012 1.756152 -4.660080
O9 1.608109 17.707914 -4.471360
O10 9.448361 -3.749862 15.061329
O11 -2.495928 4.067953 -1.308301
O12 -5.551371 2.646210 14.154193
O13 0.386633 8.398919 5.477077
O14 2.631134 12.049086 -6.868650
O15 -9.645521 -11.914598 -3.839326
O16 4.912607 5.517369 -0.791821
O17 1.109853 -10.648745 -8.088052
O18 -11.336981 -3.580159 -9.455250
O19 0.158318 4.447977 -0.259210
O20 -1.555231 3.462602 8.473630
O21 7.504735 6.223196 4.463116
O22 0.988491 10.751711 -5.639630
O23 -5.055564 -9.216153 -0.913343
O24 -6.059346 -4.869555 -5.802686
O25 -0.554280 -10.340816 -11.422204
O26 13.084229 -0.864851 2.444814
O27 4.676468 0.738397 3.781454
O28 4.111264 1.803914 -0.176057
O29 -3.129221 -2.197011 -2.803332
O30 -8.785729 -15.572749 1.553276
O31 0.879214 -4.401354 -2.412207
O32 -1.325474 -4.475685 11.392653
O33 -3.135205 -6.111972 1.193159
O34 -2.367687 7.942755 -7.125293
O35 -10.026125 3.014238 -1.666566
O36 -3.460017 6.193442 9.430891
O37 -8.765792 -8.668222 8.636412
O38 5.361589 0.851023 -4.117158
O39 -3.057543 -7.233243 6.559655
O40 0.848983 -10.163933 8.392288
O41 -5.001661 6.871264 -0.641692
O42 -5.618807 -2.489470 8.885004
O43 -0.547281 -0.201116 -16.533553
O44 -1.526294 -2.281837 0.715864
O45 4.348500 -4.480776 3.628314
O46 -8.663864 5.308100 -8.323326
O47 1.611238 -8.945170 2.240164
O48 10.332474 -0.039285 2.743881
O49 -7.983614 3.147375 -6.709741
O50 14.638237 10.733184 -1.929429
O51 1.511582 -6.085943 1.678643
O52 6.412801 0.280876 -0.525250
O53 -5.420458 9.755039 -9.436926
O54 3.087716 -5.143890 -0.750573
O55 -8.230047 3.995657 1.455892
O56 10.304446 1.360496 -7.250428
O57 -9.364696 7.831053 8.001620
O58 7.612056 -0.099074 2.028352
O59 6.408633 12.149714 -6.411637
O60 6.615543 -3.106123 0.446997
O61 -3.344525 -1.799483 6.235779
O62 -11.489632 5.613170 5.284536
O63 -2.915360 3.537664 2.076924
O64 -9.119526 -0.400443 1.490610
H1 -7.605111 -7.750962 8.996818
H2 -6.116398 -7.733420 8.427735
H3 9.319107 12.169837 -1.958993
H4 8.273335 13.015474 -1.517739
H5 11.760982 3.233431 3.529178
H6 11.099217 2.877864 4.911930
H7 -7.013830 -2.348574 -2.233193
H8 -7.093428 -2.536913 -0.691322
H9 -0.617931 -12.750454 -0.458396
H10 0.631682 -12.139435 -1.237037
H11 4.993231 -3.209070 -7.743945
H12 5.932502 -3.140167 -6.470467
H13 -5.455613 -9.440071 -5.025920
H14 -4.906398 -8.077509 -5.749242
H15 -3.702854 1.048642 -4.004997
H16 -3.042852 2.406783 -4.484292
H17 1.560279 17.948214 -5.441401
H18 2.077362 18.551469 -4.205936
H19 9.846405 -3.623457 15.929656
H20 9.658387 -4.719909 14.654698
H21 -2.020750 3.649333 -2.087006
H22 -3.423481 3.670172 -1.127093
H23 -5.515572 1.697038 14.234393
H24 -6.479290 2.992847 14.332381
H25 0.883502 8.965297 4.777046
H26 0.792211 7.481860 5.545060
H27 3.157008 12.243908 -6.052324
H28 2.051172 11.342470 -6.479297
H29 -10.010247 -12.518643 -3.091978
H30 -8.680322 -12.008169 -3.808177
H31 5.214725 5.135319 -1.645511
H32 4.274648 6.296876 -0.951960
H33 0.144338 -10.522427 -7.815719
H34 1.563550 -11.425115 -7.616640
H35 -10.455937 -3.303801 -9.798072
H36 -11.767269 -2.616362 -9.580569
H37 0.463572 5.372951 -0.409210
H38 -0.764506 4.416807 -0.724781
H39 -0.732822 2.916024 8.176797
H40 -0.986886 4.261669 8.708766
H41 8.170469 5.578466 4.434978
H42 6.969638 6.260026 3.630111
H43 0.362692 11.293622 -5.159025
H44 0.743942 9.783867 -5.795774
H45 -5.427410 -9.365825 -0.000659
H46 -5.882410 -8.965575 -1.447732
H47 -6.242261 -5.518613 -5.020379
H48 -5.596657 -5.317910 -6.539837
H49 -1.117558 -9.604343 -11.757566
H50 -0.404084 -10.840822 -12.273276
H51 13.769841 -0.819007 1.778731
H52 13.117560 0.003031 2.865586
H53 3.921457 0.405619 4.445205
H54 5.531629 0.458975 4.171636
H55 4.260996 2.308442 0.646402
H56 3.506952 2.322149 -0.852402
H57 -2.764227 -2.843610 -2.176731
H58 -2.443733 -2.086005 -3.507038
H59 -8.856371 -14.651265 1.261390
H60 -8.814778 -16.100765 0.731046
H61 0.081302 -4.382093 -1.740887
H62 0.471932 -4.809314 -3.185097
H63 -1.369634 -3.722645 12.121051
H64 -1.811470 -5.231010 11.662680
H65 -3.821481 -5.988373 0.473134
H66 -3.061087 -7.045910 1.395734
H67 -1.429633 8.029224 -6.732300
H68 -2.914183 7.329786 -6.561958
H69 -9.573808 3.464565 -2.477385
H70 -10.756793 3.599460 -1.261469
H71 -4.185368 6.673286 9.935180
H72 -3.173354 5.612066 10.206703
H73 -8.615301 -9.505395 8.094665
H74 -9.529247 -8.335618 8.064227
H75 6.024726 0.349029 -3.597340
H76 5.679941 0.571526 -4.994295
H77 -2.430210 -7.905295 6.791729
H78 -3.184578 -6.740328 7.455314
H79 0.948181 -9.808615 9.295276
H80 1.764366 -10.632673 8.371473
H81 -5.901330 6.379932 -0.478922
H82 -5.122326 7.785033 -0.319220
H83 -5.850043 -2.966958 8.110935
H84 -4.637434 -2.555567 8.911589
H85 -0.463141 -0.510400 -15.608575
H86 -0.170853 0.757936 -16.583024
H87 -0.914179 -1.768035 1.224920
H88 -2.134601 -2.481723 1.416001
H89 4.082343 -4.137909 2.770619
H90 4.140116 -5.408013 3.675362
H91 -8.223770 4.519714 -7.957693
H92 -8.660794 5.153403 -9.266326
H93 1.669849 -9.697237 2.867965
H94 1.072690 -9.320984 1.459488
H95 10.903369 0.509203 2.079489
H96 9.463409 0.046154 2.406593
H97 -7.098539 3.502413 -6.461091
H98 -7.859333 2.404012 -7.362929
H99 15.419215 10.507026 -1.369092
H100 14.202218 9.900451 -2.220745
H101 1.563036 -6.827582 2.326368
H102 1.217872 -5.418793 2.275871
H103 5.789362 1.068415 -0.526006
H104 5.909018 -0.420602 -1.023494
H105 -5.892778 9.607889 -8.570413
H106 -4.575579 9.229612 -9.384949
H107 2.415675 -5.550677 -0.064298
H108 2.492127 -4.910482 -1.553415
H109 -9.213487 3.784463 1.478696
H110 -8.156899 4.578737 0.615488
H111 9.376144 1.203485 -6.880137
H112 10.297055 1.023734 -8.173582
H113 -8.489972 7.646274 8.471514
H114 -9.536923 8.774091 8.178841
H115 7.469767 -0.928262 2.559066
H116 7.244514 -0.241144 1.075069
H117 7.322595 12.066587 -6.149658
H118 6.325587 11.247984 -6.770654
H119 6.454419 -3.067079 1.446365
H120 7.304088 -2.391589 0.329053
H121 -2.497650 -1.354996 6.051136
H122 -3.054279 -2.721517 5.943175
H123 -12.121885 4.888373 4.929285
H124 -10.624957 5.406894 4.819659
H125 -3.924720 3.238705 1.993683
H126 -2.735345 3.352194 3.027253
H127 -9.232533 0.348764 0.846716
H128 -8.515786 0.010449 2.225228
