192
1 12.414492 0.000000 0.000000 0.000000 12.414492 0.000000 0.000000 0.000000 12.414492
O1 0.642970 -17.770476 5.575895
O2 4.803282 7.671660 9.600585
O3 9.158790 0.957625 -1.154062
O4 -2.867631 5.470928 7.404471
O5 -7.367520 -1.478692 1.223693
O6 7.611514 -7.917510 0.225805
O7 -3.076860 3.367766 5.477892
O8 -4.838866 2.465335 -10.096526
O9 8.036410 9.785494 -7.562458
O10 -11.692998 -12.089831 -2.533064
O11 9.613446 -1.427993 -5.491326
O12 3.588260 8.933239 6.783248
O13 12.305434 -9.740878 6.041244
O14 -3.125067 -3.476354 0.403441
O15 -2.316812 3.352783 -1.863168
O16 -0.198252 -9.953241 -3.640282
O17 3.569128 0.688339 -3.078579
O18 -0.639539 9.880424 -2.180408
O19 -6.559819 -0.965511 -2.396805
O20 -10.957525 -2.092280 5.707456
O21 3.968958 6.726796 2.322032
O22 10.168155 -11.244977 2.977129
O23 -4.248458 5.385620 -2.342080
O24 -1.754967 13.117404 -19.255496
O25 -7.717011 -3.394793 -8.682450
O26 -5.160457 -4.643462 -3.817537
O27 -7.340246 3.222562 16.232511
O28 6.612846 13.053631 -12.681706
O29 -5.205808 -5.297470 2.538674
O30 1.200052 -4.813642 2.093207
O31 6.045220 3.539532 -3.212878
O32 0.391636 2.389683 1.922615
O33 0.043309 6.831006 8.036575
O34 1.523137 6.421205 -13.197250
O35 -6.097196 6.791328 -0.662696
O36 1.374980 4.774770 -3.079929
O37 2.121689 -3.680031 -3.384380
O38 -9.631708 -10.568248 6.662616
O39 -9.803046 -14.654680 13.900070
O40 8.608472 -5.562982 -7.178074
O41 4.581361 14.836229 11.249651
O42 2.858654 0.364138 0.010037
O43 1.172143 -7.320219 3.082799
O44 -4.306787 -0.107632 -3.851258
O45 -13.893966 -7.083066 4.211313
O46 3.210040 2.794258 1.517677
O47 -8.702297 5.303549 0.250419
O48 3.798064 5.655381 8.354823
O49 -0.502545 4.573983 -0.502706
O50 -0.284970 -2.608855 -9.166737
O51 10.377497 -6.650066 1.421473
O52 6.697225 -0.194497 3.143515
O53 5.031382 0.944212 5.557759
O54 6.034677 10.680287 -5.705330
O55 6.702198 -2.746158 -0.413350
O56 -0.601038 0.211985 -0.061555
O57 -2.287317 -1.510839 1.905114
O58 -6.610047 -6.471856 -7.923242
O59 -0.166863 -1.616880 7.843888
O60 1.529409 9.012113 -0.874066
O61 3.522824 -5.791684 -6.598449
O62 -1.912342 7.489110 10.269892
O63 7.068923 2.104833 -5.511122
O64 -10.757878 -0.469728 3.565645
H1 0.258710 -18.114538 4.679409
H2 1.603197 -18.008835 5.622933
H3 4.045625 8.332845 9.303581
H4 5.568682 7.779702 9.006296
H5 9.830729 0.457877 -0.769496
H6 9.452419 1.889030 -1.242586
H7 -2.514145 4.702216 6.861462
H8 -2.062768 6.067054 7.476358
H9 -6.484668 -1.718314 0.748964
H10 -7.144384 -0.671504 1.729887
H11 7.120133 -6.994194 0.182359
H12 8.308952 -7.924435 -0.405202
H13 -3.976245 3.061488 5.817252
H14 -2.356574 2.606283 5.604781
H15 -5.598091 2.818272 -9.557592
H16 -4.759421 3.119836 -10.807750
H17 7.520135 9.791635 -8.381419
H18 8.456762 8.916207 -7.423932
H19 -11.943457 -12.434518 -1.641225
H20 -11.993395 -12.830902 -3.168017
H21 9.060399 -1.701107 -6.208942
H22 8.987620 -0.916646 -4.771880
H23 3.206885 8.950773 7.706654
H24 3.456809 8.076574 6.323677
H25 12.193451 -9.930295 7.068846
H26 11.839253 -10.580559 5.677837
H27 -2.684692 -2.773172 0.934163
H28 -2.576961 -4.273288 0.593946
H29 -1.597593 3.495191 -1.206916
H30 -2.695576 4.266071 -2.042179
H31 -0.127677 -10.850955 -3.136884
H32 -0.959196 -9.507865 -3.236440
H33 2.644050 0.326109 -3.015577
H34 3.713539 1.320293 -2.302842
H35 -0.514764 9.969102 -3.173348
H36 -1.461468 9.372104 -1.948164
H37 -6.319795 -0.590360 -1.498703
H38 -7.278517 -0.377643 -2.662559
H39 -10.093908 -2.554953 6.087301
H40 -11.511319 -2.765810 5.277182
H41 4.258198 7.657095 2.767510
H42 3.066906 7.036797 1.923006
H43 10.904786 -10.694271 2.695769
H44 9.347407 -10.765811 2.820401
H45 -4.761718 6.136799 -1.955224
H46 -3.971342 5.734026 -3.268945
H47 -2.321823 12.431625 -18.844276
H48 -1.983701 13.154942 -20.198563
H49 -6.995856 -3.090645 -7.973848
H50 -7.671190 -2.659977 -9.329929
H51 -4.606228 -3.926700 -3.436254
H52 -4.673117 -4.836168 -4.694464
H53 -7.854260 2.910563 15.433122
H54 -7.471728 2.481424 16.888839
H55 7.484679 13.261692 -12.961385
H56 5.986852 13.787860 -12.880352
H57 -5.637196 -5.181908 1.681425
H58 -4.321707 -4.912084 2.449669
H59 1.196410 -5.240673 1.260573
H60 0.869216 -5.583041 2.611363
H61 6.335150 3.242959 -4.084764
H62 6.759493 4.098383 -2.817973
H63 0.336327 3.219693 1.342564
H64 1.397546 2.430168 2.053735
H65 0.196610 6.883310 7.058456
H66 0.388655 6.003913 8.347548
H67 1.551091 7.373535 -13.311951
H68 1.527851 6.004826 -14.085327
H69 -5.894370 7.775504 -0.611100
H70 -6.733237 6.937956 -1.426590
H71 0.844290 3.899297 -3.297697
H72 2.228517 4.844199 -3.661034
H73 1.452188 -4.282120 -3.768407
H74 1.952042 -3.452692 -2.423618
H75 -9.379507 -10.790354 7.615691
H76 -10.576833 -10.375940 6.489254
H77 -8.810196 -14.253297 13.825801
H78 -10.024241 -14.373750 14.844031
H79 7.869791 -6.117020 -7.437687
H80 8.804099 -5.988586 -6.234001
H81 5.017306 15.271950 10.516860
H82 4.188122 15.650406 11.683176
H83 2.177816 -0.243581 0.459839
H84 3.707934 -0.117929 -0.029099
H85 0.527554 -7.859133 3.570981
H86 2.049327 -7.543224 3.324184
H87 -3.844359 0.130010 -3.057774
H88 -5.202284 -0.548489 -3.520333
H89 -14.051557 -8.047539 4.508997
H90 -14.590872 -6.706274 4.776402
H91 3.281211 2.088116 0.818549
H92 3.483034 3.773717 1.225707
H93 -8.376162 5.825131 0.983015
H94 -9.559898 5.733205 -0.044559
H95 4.109858 6.513494 8.935103
H96 4.531606 5.036393 8.513306
H97 0.221524 4.796500 -1.066282
H98 -0.794491 5.303649 0.070902
H99 0.260973 -1.869641 -9.527796
H100 0.150406 -3.413920 -9.492220
H101 9.570567 -7.150506 1.363098
H102 10.571983 -6.972265 2.354723
H103 6.185198 -0.001425 3.907235
H104 6.884712 0.747918 2.819376
H105 4.189805 1.371548 5.984917
H106 4.869204 0.020446 5.754638
H107 6.623956 9.976411 -6.028829
H108 5.214429 10.211668 -5.824401
H109 7.611190 -2.812872 -0.237957
H110 6.572322 -2.224552 -1.211796
H111 -0.390854 0.871362 0.657007
H112 -1.083793 -0.593028 0.393744
H113 -1.506107 -1.778378 2.459604
H114 -2.508661 -0.613302 2.235466
H115 -6.861590 -7.374145 -8.362733
H116 -6.265545 -5.960394 -8.678490
H117 0.468060 -1.673387 7.093028
H118 -1.106153 -1.549229 7.512212
H119 1.810436 9.545674 -0.064632
H120 0.609944 9.218518 -1.205257
H121 4.335362 -5.781413 -7.244821
H122 3.731074 -6.237556 -5.694685
H123 -1.746476 6.780499 10.807712
H124 -1.388310 7.426143 9.458047
H125 7.470907 1.363774 -5.047556
H126 6.360968 1.854013 -6.180474
H127 -11.202453 0.396258 3.544884
H128 -10.734189 -0.709766 4.486051
