192
1 12.414492 0.000000 0.000000 0.000000 12.414492 0.000000 0.000000 0.000000 12.414492
O1 -10.940092 2.063040 2.842870
O2 -6.900776 -3.769680 -0.160646
O3 -6.951848 -0.965915 0.331329
O4 -5.431941 6.546268 11.491905
O5 1.197061 -5.351300 4.068877
O6 5.480704 -5.425796 2.846473
O7 2.958683 -12.289033 3.830976
O8 -1.962127 -4.110577 4.817999
O9 2.531795 7.203299 7.139278
O10 -5.988536 -6.045990 -3.498332
O11 -2.617632 -12.727422 1.806137
O12 0.095675 -2.180481 1.480211
O13 2.906616 -1.603658 -10.601231
O14 3.671623 0.703213 -5.786140
O15 0.981660 -4.584699 0.249807
O16 8.323830 10.144265 -1.091276
O17 12.907530 11.242481 4.397722
O18 10.381383 4.828642 -1.167671
O19 5.460336 -5.270605 -6.704558
O20 11.517897 3.145347 -3.090409
O21 -4.254505 4.765354 0.624175
O22 3.029714 -4.058093 2.355405
O23 -1.596143 8.251350 0.959611
O24 -9.183563 4.187215 -21.825543
O25 -8.232000 -3.857792 8.963391
O26 -9.983006 -0.546133 -1.886494
O27 2.804237 9.228235 -1.121696
O28 0.192858 -7.751654 0.479410
O29 3.150930 4.753895 6.106674
O30 -4.827551 -0.284417 5.364153
O31 4.841222 -1.650150 7.743922
O32 -9.915681 5.583255 -1.555787
O33 0.935272 -2.378103 6.904575
O34 -16.002887 1.740408 -4.508196
O35 -3.761478 4.202267 5.209557
O36 -3.473403 -2.737364 -4.302542
O37 -0.761360 4.122266 5.842985
O38 -2.826633 -10.973622 -1.196869
O39 5.374227 12.842216 -1.928085
O40 0.670780 0.213313 -5.063844
O41 -6.570229 -2.560577 5.259321
O42 2.895286 3.008462 -1.609652
O43 2.105387 3.010553 8.018708
O44 0.342048 6.113261 -4.348760
O45 5.397402 3.216831 -1.269620
O46 7.993862 -5.065847 6.504305
O47 -5.489081 9.206336 2.368557
O48 5.361457 2.938119 -6.131980
O49 -5.534864 0.586411 2.099334
O50 -5.802821 3.648806 -3.923456
O51 1.102408 -10.178984 0.187919
O52 0.069886 -7.599155 3.224231
O53 -2.461608 -5.400757 -2.932027
O54 -1.367490 1.700003 -6.164610
O55 -0.172377 0.640000 -1.897485
O56 6.993304 2.213735 -8.102852
O57 -1.136954 8.270533 -4.887893
O58 -2.596510 5.662084 3.324609
O59 7.392744 2.335963 0.173194
O60 -1.422898 -2.615715 -1.643899
O61 -3.641473 -2.109780 3.616843
O62 -5.192109 -0.596063 -3.817973
O63 4.557124 -7.448053 0.781602
O64 -0.946103 0.963864 3.393228
H1 -11.040439 1.987639 1.794140
H2 -10.530150 2.948977 3.056525
H3 -7.814520 -3.928445 -0.537981
H4 -6.844916 -2.854358 0.014010
H5 -6.494473 -0.493559 1.071863
H6 -6.902786 -0.371218 -0.490945
H7 -5.059067 5.917580 12.111875
H8 -6.015768 7.263670 12.000914
H9 1.896079 -4.859723 3.588565
H10 1.487352 -5.225285 5.025055
H11 5.459856 -6.170924 2.186937
H12 4.659767 -4.907961 2.583210
H13 3.175702 -12.166164 4.747956
H14 2.421047 -11.538998 3.493922
H15 -2.486991 -3.355791 4.368369
H16 -1.294832 -4.231203 4.150136
H17 2.998837 7.921204 7.727109
H18 1.708510 7.006568 7.626328
H19 -5.328654 -5.612656 -4.036997
H20 -5.835910 -5.956949 -2.467162
H21 -1.916501 -12.227747 2.209664
H22 -2.558191 -12.840823 0.832413
H23 0.466724 -1.725237 2.272629
H24 0.777791 -2.012752 0.775420
H25 3.616720 -1.389963 -11.249674
H26 3.209919 -1.216082 -9.747474
H27 4.151271 1.516410 -6.064921
H28 2.808856 1.017978 -5.488605
H29 1.373852 -5.353194 -0.155592
H30 0.022413 -4.760119 0.491884
H31 7.881686 10.939668 -0.931677
H32 8.461318 10.012983 -2.083940
H33 13.794801 11.654262 4.150877
H34 12.366881 12.068667 4.327212
H35 9.591468 4.826055 -0.557018
H36 10.331587 5.682404 -1.669286
H37 5.424632 -5.714911 -7.557861
H38 5.316024 -4.311301 -6.880239
H39 10.936579 3.806047 -2.600849
H40 11.664290 2.354558 -2.536834
H41 -4.473401 3.710728 0.536459
H42 -3.925652 4.931370 1.607710
H43 3.108961 -3.067325 2.221890
H44 2.578656 -4.443968 1.625992
H45 -1.440050 9.110175 1.370970
H46 -2.367069 7.683142 1.331219
H47 -9.034146 4.612783 -22.737749
H48 -8.258754 3.884936 -21.656500
H49 -7.899152 -3.027768 8.543799
H50 -7.462177 -4.450984 8.956328
H51 -9.752970 -1.426108 -1.462445
H52 -9.098132 -0.293203 -2.112526
H53 2.167089 8.553307 -0.849311
H54 3.169692 8.835339 -1.933132
H55 0.029541 -7.522776 1.428397
H56 -0.562263 -7.675221 -0.159915
H57 2.869091 4.466307 5.213896
H58 2.855027 5.711979 6.412334
H59 -4.106078 -0.611990 4.795972
H60 -4.545519 -0.467005 6.243511
H61 4.141754 -1.061555 7.366240
H62 5.520917 -1.036754 8.043956
H63 -9.301186 5.722197 -2.282972
H64 -9.877352 4.577416 -1.257553
H65 1.540903 -3.019127 6.658349
H66 0.587085 -1.929019 6.084299
H67 -15.546274 1.756406 -3.588857
H68 -15.159390 1.699008 -5.103665
H69 -4.492337 3.543834 4.947538
H70 -2.946131 3.686359 5.370430
H71 -4.021937 -3.255436 -4.982322
H72 -2.612859 -3.232256 -4.295218
H73 -0.277115 4.582817 6.608379
H74 -0.201761 4.355399 5.064718
H75 -2.011484 -10.651829 -0.838949
H76 -3.629714 -10.726132 -0.623858
H77 6.118595 12.697779 -2.581814
H78 5.246000 13.833748 -1.717874
H79 0.512820 0.469813 -4.141125
H80 0.961938 -0.741638 -5.027439
H81 -6.086222 -1.971007 4.609404
H82 -6.752986 -2.016072 6.006484
H83 2.301633 2.575864 -0.928362
H84 2.599451 2.714041 -2.534427
H85 2.421184 3.714846 7.395398
H86 1.176731 3.225509 8.325996
H87 0.371654 5.782237 -3.435948
H88 -0.369298 6.820901 -4.513581
H89 4.330227 3.102330 -1.422046
H90 5.785991 3.278099 -2.272017
H91 7.161739 -5.225944 6.024739
H92 8.507065 -5.865343 6.460494
H93 -5.894989 8.346841 2.747546
H94 -5.949781 9.209058 1.541405
H95 5.965276 2.924445 -5.292261
H96 4.731245 3.660985 -6.084144
H97 -5.738026 1.143310 2.880317
H98 -4.595199 0.432434 2.179056
H99 -5.898206 4.704612 -3.822044
H100 -4.797927 3.339934 -3.831388
H101 0.697612 -9.222511 0.306852
H102 0.439086 -10.674819 -0.288680
H103 0.637552 -6.794522 3.361623
H104 -0.822305 -7.106712 3.224023
H105 -2.047872 -4.551175 -2.853341
H106 -3.376041 -5.191927 -2.568584
H107 -1.220316 2.620706 -6.176431
H108 -0.666262 1.266430 -5.645970
H109 -0.728589 -0.187822 -2.028397
H110 0.667869 0.211702 -1.736409
H111 7.282430 1.426471 -7.554159
H112 6.189370 2.528713 -7.533064
H113 -0.406523 9.029813 -4.891254
H114 -1.428559 8.114041 -5.775052
H115 -2.703141 6.609751 3.603769
H116 -2.817218 4.954709 3.994581
H117 7.122056 1.702516 0.835130
H118 6.646000 2.430278 -0.478002
H119 -2.349461 -2.480514 -1.271478
H120 -0.747557 -2.983124 -0.995620
H121 -4.329085 -2.554325 2.977874
H122 -2.933269 -1.722137 3.064416
H123 -4.476721 -1.326728 -3.880312
H124 -4.794187 0.248942 -4.136975
H125 4.435228 -6.821365 -0.097445
H126 5.220511 -8.085823 0.403925
H127 -0.133054 1.565187 3.330784
H128 -1.498262 1.433734 3.989152
