192
1 12.414492 0.000000 0.000000 0.000000 12.414492 0.000000 0.000000 0.000000 12.414492
O1 -5.252737 -7.180572 6.350650
O2 10.417756 -1.710544 15.609137
O3 8.239096 -4.053267 9.408466
O4 -7.230897 -11.602065 5.904721
O5 -8.199970 -2.745966 13.228319
O6 6.096000 -7.322433 2.621702
O7 13.920641 6.100973 -6.114531
O8 1.175880 2.669481 8.703293
O9 -2.056215 1.246758 3.369519
O10 -15.405497 1.685106 0.920756
O11 -2.721716 -1.525409 5.854640
O12 8.441654 11.736777 0.107804
O13 -3.980571 7.778791 -5.658118
O14 -9.151391 9.280487 -5.259365
O15 6.251383 8.090138 -13.408348
O16 7.723307 -0.866537 2.948895
O17 0.429397 4.729169 -0.488878
O18 17.557021 0.839689 -9.369761
O19 0.373888 -15.746101 1.311720
O20 -2.001009 7.575729 13.148440
O21 -7.709021 8.414574 3.811929
O22 6.367232 10.346385 -2.830844
O23 -1.471024 -6.403901 -9.421022
O24 10.566795 -0.835079 -1.797252
O25 15.888462 -5.547593 1.570259
O26 2.253280 3.426235 10.802836
O27 -1.281429 -3.434192 6.775596
O28 -4.053091 -3.300407 -11.290921
O29 12.329030 -4.704840 -7.866700
O30 -1.512054 -3.538107 -2.833664
O31 -1.599893 -10.839687 -3.551450
O32 -12.218122 -1.101753 12.191806
O33 -5.058682 -10.435701 4.660350
O34 0.939413 4.663070 2.272885
O35 -5.283738 -3.008796 4.866124
O36 9.141812 0.984965 6.792282
O37 -0.779437 4.499523 -5.068315
O38 4.973057 5.874952 4.812919
O39 -5.131574 -9.630986 -1.345738
O40 -1.642471 15.586629 -0.904796
O41 16.275577 -11.340056 -2.201595
O42 2.133441 -1.130487 -2.250854
O43 7.246004 13.022258 -3.307969
O44 -9.179131 -0.970262 2.869006
O45 -2.817763 4.001723 -6.833566
O46 -16.144800 -7.182781 11.498013
O47 -8.253331 -7.037928 -2.054536
O48 -6.289287 5.685628 -0.092638
O49 1.517488 2.237285 6.215413
O50 -6.949596 -2.104441 -18.093804
O51 -10.410280 7.208340 -3.758829
O52 -2.518803 5.421393 -3.456556
O53 13.267229 -0.223531 6.309320
O54 0.241879 -5.119429 -14.259600
O55 2.182960 -4.105407 -0.279913
O56 -6.918086 11.728766 11.950663
O57 7.002235 14.935034 1.441927
O58 4.293057 2.640800 -4.489954
O59 -8.991746 -8.144993 -6.357655
O60 1.405071 0.777952 -10.805895
O61 0.181914 2.466011 15.591639
O62 6.348741 -8.439636 -3.639533
O63 -4.221275 -5.557553 3.163008
O64 1.661181 -2.336594 -7.589384
H1 -4.417641 -7.624265 6.089455
H2 -4.824447 -6.269655 6.418612
H3 9.511015 -1.640948 15.269846
H4 10.583014 -0.824512 15.791826
H5 7.685791 -4.445724 10.197809
H6 9.255837 -3.997686 9.574403
H7 -6.426673 -11.075679 5.757268
H8 -7.678728 -11.021877 6.546173
H9 -7.700853 -3.159650 13.945309
H10 -7.575614 -1.994793 12.932267
H11 5.306605 -7.148965 3.101430
H12 6.797352 -6.778624 3.142323
H13 14.658091 5.424513 -6.338439
H14 13.051747 5.618298 -5.935157
H15 1.503199 3.100116 9.555790
H16 0.233688 2.316752 8.796292
H17 -2.681329 1.689146 3.908454
H18 -1.199848 1.803340 3.323647
H19 -14.866310 1.470825 1.801403
H20 -16.276654 2.162195 1.125845
H21 -3.619114 -1.768380 5.999744
H22 -2.596612 -1.788467 4.843799
H23 8.482056 10.975428 0.783887
H24 9.001039 12.457966 0.497782
H25 -3.029511 8.021030 -5.533057
H26 -4.332197 8.067374 -4.810559
H27 -9.525258 8.614889 -4.645296
H28 -9.792696 9.382096 -6.013931
H29 6.110364 7.236427 -12.957094
H30 5.510272 8.421815 -13.952237
H31 7.404752 -1.449037 3.644898
H32 7.060997 -0.131161 2.802498
H33 0.742910 4.881398 0.403997
H34 -0.379160 4.091100 -0.497592
H35 16.730302 0.240439 -9.388332
H36 17.523876 1.068723 -8.364675
H37 1.019589 -16.351518 1.023851
H38 0.499842 -15.775813 2.262548
H39 -1.970954 6.917538 13.933878
H40 -1.047938 7.878269 13.200307
H41 -8.501538 8.891031 4.069940
H42 -6.993757 8.979459 4.150557
H43 5.989513 10.439919 -3.743523
H44 7.156713 9.686768 -2.909106
H45 -0.648363 -6.722140 -9.992320
H46 -0.973148 -5.712855 -8.858901
H47 11.438681 -0.978215 -1.311513
H48 9.958184 -0.875939 -1.007408
H49 15.603108 -4.959264 0.821290
H50 16.509264 -5.111467 2.135121
H51 1.452026 3.926707 11.240947
H52 2.812758 4.197390 10.617516
H53 -1.798976 -2.635718 6.602158
H54 -1.100456 -3.406012 7.732132
H55 -3.155013 -3.704274 -11.462277
H56 -4.573577 -3.461369 -12.138467
H57 12.929177 -5.285576 -7.345295
H58 11.714702 -4.564441 -7.134280
H59 -1.606905 -2.649941 -2.562229
H60 -0.733776 -4.037183 -2.479737
H61 -1.880756 -11.664569 -3.026668
H62 -2.160078 -10.767676 -4.330340
H63 -11.893619 -1.846864 12.811907
H64 -11.482166 -1.122481 11.453859
H65 -4.256245 -10.303204 5.253088
H66 -5.321387 -9.566431 4.422305
H67 1.824693 4.908364 2.575727
H68 0.703735 3.797104 2.647270
H69 -5.836950 -2.596642 5.624453
H70 -4.936655 -3.870937 5.204037
H71 9.527359 0.237659 6.295161
H72 8.478373 0.510953 7.411466
H73 -1.552028 4.674493 -4.476112
H74 -0.136975 3.850953 -4.692548
H75 4.823561 6.879108 4.663827
H76 5.872248 5.857890 5.284169
H77 -4.817661 -10.463697 -1.691236
H78 -5.517951 -9.784610 -0.464884
H79 -1.435808 15.092830 -1.746936
H80 -2.088826 14.878387 -0.355460
H81 15.720121 -10.663924 -1.792417
H82 16.880200 -11.589841 -1.486545
H83 1.900219 -1.548405 -3.106367
H84 2.612457 -0.261922 -2.435622
H85 6.433026 13.496008 -3.554615
H86 6.936066 12.099027 -3.089744
H87 -9.077080 -1.577471 2.078512
H88 -9.749621 -1.512846 3.510227
H89 -2.065606 4.102109 -6.216127
H90 -2.503553 4.554421 -7.592825
H91 -15.841631 -6.339620 11.786134
H92 -15.591098 -7.956534 11.829184
H93 -7.534730 -7.335197 -2.676293
H94 -7.606280 -6.854669 -1.270106
H95 -5.552093 5.248228 -0.509041
H96 -6.236112 5.537913 0.859199
H97 1.568328 2.491564 7.244853
H98 2.323864 2.665594 5.878292
H99 -7.819397 -2.542664 -18.003416
H100 -7.033808 -1.126425 -18.218431
H101 -9.816861 6.660521 -3.151438
H102 -10.652851 6.563440 -4.461748
H103 -3.270061 5.011236 -3.006155
H104 -2.538457 6.305934 -3.122684
H105 13.452517 0.734012 6.350468
H106 12.433548 -0.228561 6.752729
H107 0.149294 -6.080018 -13.895367
H108 0.846234 -5.211369 -15.059152
H109 2.706250 -3.460720 -0.819281
H110 1.627853 -4.643714 -0.917468
H111 -6.718215 11.247202 11.075149
H112 -5.976742 11.949145 12.192171
H113 6.589407 15.799096 1.500573
H114 6.322035 14.371978 1.949540
H115 4.001279 2.164481 -3.695310
H116 5.194734 3.018863 -4.442866
H117 -8.932283 -8.609368 -5.461871
H118 -8.176109 -7.771692 -6.674021
H119 1.024441 -0.049936 -11.159553
H120 2.229511 0.414619 -10.309257
H121 0.703546 1.716688 15.130340
H122 0.375925 2.280950 16.548736
H123 6.720681 -7.904384 -4.387646
H124 6.937422 -8.642613 -2.894368
H125 -4.288851 -4.604577 2.900923
H126 -3.384677 -5.958310 3.025480
H127 1.438650 -1.524423 -7.077763
H128 0.908912 -2.949281 -7.545337
