192
1 12.414492 0.000000 0.000000 0.000000 12.414492 0.000000 0.000000 0.000000 12.414492
O1 -4.775913 -1.045174 -7.671058
O2 -6.601475 -4.116203 3.119773
O3 0.914544 -0.308227 6.176471
O4 2.268879 8.669718 9.224404
O5 4.586874 13.872729 -1.230428
O6 -0.221558 16.160501 -1.201448
O7 -5.725116 6.786458 -7.353680
O8 2.165632 6.166548 -11.802447
O9 4.300338 -6.574320 5.659767
O10 3.069997 -1.142066 15.315845
O11 -4.806574 -4.813967 7.635695
O12 8.662963 -0.239626 -5.276541
O13 -0.698692 -12.600155 -3.030635
O14 6.991722 -11.004562 10.147689
O15 -2.476326 -17.887008 10.315150
O16 0.993321 1.630198 0.088393
O17 2.507831 -2.668703 5.848867
O18 1.134224 0.337846 3.695498
O19 -1.316121 -1.480065 7.158149
O20 -10.232836 2.753875 -9.633242
O21 7.053078 2.447062 -4.980134
O22 -4.473956 8.978465 -1.882299
O23 -4.366144 -6.386014 -0.394669
O24 0.215990 -3.822058 -1.072261
O25 -0.962980 -6.533910 8.278166
O26 17.116373 6.959438 8.102282
O27 -2.254238 -10.468306 9.135715
O28 -4.465574 -3.784720 0.951472
O29 -0.718633 0.124644 1.803207
O30 -9.796343 4.225271 -4.511142
O31 -4.389713 5.091986 -8.946043
O32 9.209408 2.939330 -7.911349
O33 2.891138 -4.488796 2.737016
O34 -15.342413 -2.017816 2.462235
O35 10.728971 3.439013 6.907198
O36 -8.032211 4.797325 0.227603
O37 -7.288921 10.442946 6.147625
O38 5.731800 3.689449 2.491760
O39 -1.115543 -4.313402 -9.013211
O40 2.560560 -15.619363 -0.113267
O41 -5.341118 1.047588 0.941575
O42 -4.016561 3.100544 11.780316
O43 -1.527354 4.327458 1.081642
O44 5.124957 8.061084 -0.587386
O45 -18.662513 5.380801 -2.324364
O46 -1.371257 10.917162 -13.111805
O47 2.124185 7.164264 -6.968763
O48 13.062669 -7.681107 2.648518
O49 8.356994 5.015787 -16.346557
O50 6.570964 -1.791785 -4.148242
O51 -8.049057 11.264320 -2.075812
O52 -8.225023 2.895659 -7.741692
O53 -4.066836 -0.857597 -13.451828
O54 5.516101 0.055985 3.162123
O55 -10.261387 1.526698 -4.626681
O56 9.451738 -10.307578 1.934916
O57 5.128079 -1.292270 0.624210
O58 -7.547040 3.132614 -3.077839
O59 4.818387 -11.507456 -5.935842
O60 -11.476688 4.574610 -6.966803
O61 -1.743960 -4.159795 -5.726678
O62 1.132628 5.755981 9.729471
O63 -2.699696 -5.859982 1.888223
O64 1.976386 0.374993 -2.143398
H1 -3.996366 -1.354258 -8.200369
H2 -4.476531 -0.696654 -6.762238
H3 -6.044191 -3.819962 2.386624
H4 -7.589508 -3.991387 2.967003
H5 0.034604 -0.639627 6.450155
H6 1.475548 -1.081263 6.265072
H7 2.763927 9.348140 9.697092
H8 2.051904 9.198033 8.398032
H9 4.376536 14.305951 -0.442835
H10 4.464300 14.469141 -1.968752
H11 0.302037 16.894621 -1.560607
H12 0.420369 15.450427 -1.062735
H13 -6.604800 6.424181 -7.060631
H14 -6.006224 7.562971 -7.946298
H15 3.022657 5.602903 -11.952761
H16 1.592342 6.054320 -12.602831
H17 4.512324 -6.286907 6.592545
H18 4.290408 -7.615886 5.612672
H19 3.043449 -2.059161 15.658372
H20 2.329978 -0.640708 15.749055
H21 -5.084068 -5.271121 6.801730
H22 -4.450897 -5.597110 8.093351
H23 9.584133 -0.711537 -5.419013
H24 8.683422 0.626784 -4.849237
H25 0.249002 -12.595704 -2.822372
H26 -1.028328 -12.819599 -2.136623
H27 6.151030 -11.241392 10.690098
H28 6.908111 -10.880013 9.132810
H29 -1.699528 -17.522851 10.919863
H30 -3.255281 -18.077443 11.065919
H31 0.204057 1.219123 0.668679
H32 1.520771 2.098095 0.803280
H33 2.256895 -3.604458 5.466026
H34 3.514888 -2.489049 5.924463
H35 1.598691 1.175978 3.572161
H36 0.806465 0.226817 4.630398
H37 -1.342102 -2.520462 7.191999
H38 -1.128045 -1.232373 8.098254
H39 -10.960034 3.391430 -9.660610
H40 -9.665960 2.975239 -8.858632
H41 7.589651 2.703928 -5.711619
H42 6.176763 2.066061 -5.330682
H43 -3.873639 8.377916 -2.366767
H44 -4.381515 9.920337 -1.641175
H45 -3.806593 -7.229672 -0.421007
H46 -4.152639 -5.964887 0.465366
H47 0.960634 -3.700170 -0.456545
H48 0.713185 -3.553829 -1.917728
H49 -1.651306 -6.158953 8.916511
H50 -1.314365 -7.369490 7.921235
H51 16.367046 7.587210 8.346683
H52 17.945588 7.483844 7.947609
H53 -1.629044 -11.272716 9.200886
H54 -2.062695 -9.886585 9.999504
H55 -4.724239 -3.575120 0.007975
H56 -4.098500 -2.936794 1.257654
H57 -1.415286 0.796027 2.121867
H58 0.015299 0.178672 2.528472
H59 -10.057924 3.298586 -4.579604
H60 -10.438832 4.594083 -3.903357
H61 -3.911521 5.665772 -9.579686
H62 -5.038695 5.608995 -8.414770
H63 8.629595 3.771892 -8.107763
H64 9.853655 3.069708 -7.191739
H65 2.643035 -5.030710 3.554359
H66 2.621574 -5.152766 2.050175
H67 -14.610316 -1.372530 2.324270
H68 -14.831676 -2.898856 2.616912
H69 11.677624 3.709907 6.827081
H70 10.664801 2.760900 7.609814
H71 -7.623568 4.316025 1.008974
H72 -7.307883 5.025773 -0.384346
H73 -6.830171 10.427823 7.062306
H74 -6.624891 10.368291 5.442805
H75 6.573572 4.123133 2.952793
H76 6.194404 2.908945 2.029335
H77 -0.513614 -4.454895 -8.240885
H78 -1.169730 -5.154039 -9.436086
H79 3.382578 -16.154612 -0.224674
H80 2.399177 -15.533090 0.820357
H81 -5.987209 0.661645 1.613929
H82 -5.254686 0.337048 0.206493
H83 -4.658830 3.015994 12.480249
H84 -4.389073 2.626423 11.068538
H85 -1.056482 4.185214 0.188554
H86 -2.146690 3.511770 1.221752
H87 5.750778 7.491192 -0.058413
H88 5.710178 8.299856 -1.378299
H89 -17.995013 5.854973 -1.831474
H90 -19.245293 5.970133 -2.815206
H91 -1.123493 11.334842 -12.232140
H92 -0.814207 10.128657 -13.155411
H93 1.320373 6.649964 -7.058461
H94 2.831379 6.500935 -6.981864
H95 13.492675 -6.991993 2.130889
H96 12.253973 -7.925679 2.075895
H97 7.661193 4.450529 -16.378596
H98 8.900861 4.828700 -17.127687
H99 7.349809 -1.415135 -4.634924
H100 7.121465 -2.355136 -3.496507
H101 -7.745378 11.528146 -1.169220
H102 -7.317639 11.430577 -2.664003
H103 -7.625211 2.984343 -8.485663
H104 -8.107013 1.959394 -7.315357
H105 -3.068214 -0.889446 -13.335098
H106 -4.179051 -0.151283 -14.174293
H107 6.081089 -0.546618 3.693539
H108 4.606390 -0.295049 3.336445
H109 -10.437733 1.080058 -3.714097
H110 -10.711134 0.890975 -5.311510
H111 8.500932 -10.575071 1.703041
H112 9.353751 -10.038053 2.922127
H113 4.376709 -1.844765 0.882418
H114 5.371628 -0.877165 1.506973
H115 -6.906588 3.823340 -2.721696
H116 -8.131219 3.642258 -3.694559
H117 5.027598 -12.406263 -6.281577
H118 3.958041 -11.530124 -5.469084
H119 -10.845858 3.845192 -6.863707
H120 -11.758230 4.610255 -7.906492
H121 -1.210155 -4.890330 -5.307025
H122 -2.744637 -4.299136 -5.536725
H123 0.344070 5.972293 9.087393
H124 1.722192 6.532226 9.605149
H125 -2.215476 -6.586454 1.398537
H126 -3.123194 -5.143083 1.414890
H127 1.822503 0.897751 -1.303727
H128 2.852700 -0.050633 -2.084293
