192
1 12.414492 0.000000 0.000000 0.000000 12.414492 0.000000 0.000000 0.000000 12.414492
O1 -1.626416 -12.199042 7.691306
O2 7.313733 -0.871418 14.283030
O3 8.023626 -7.873487 4.596778
O4 -9.837540 -5.886703 4.502495
O5 -3.046411 -7.898777 8.380771
O6 5.537871 0.390744 3.362368
O7 13.798445 2.587575 -2.288315
O8 2.416364 0.226443 7.602661
O9 -4.579194 -4.022842 0.261137
O10 -13.271260 5.334014 6.273845
O11 0.301266 -3.530545 -0.509519
O12 6.988700 7.088001 -3.800487
O13 -11.427002 2.205429 3.570065
O14 -8.964616 9.308913 0.729497
O15 0.707765 4.792600 -8.590726
O16 10.357385 -4.423777 6.049832
O17 -0.582929 2.507082 1.316573
O18 11.598122 -1.239713 -9.521014
O19 -3.605184 -8.079935 1.154533
O20 4.868422 11.721342 12.711146
O21 -3.347755 9.815654 2.722102
O22 8.509491 10.017359 -2.597455
O23 3.259242 -4.678269 -4.604730
O24 8.058390 0.460424 -7.420388
O25 12.356876 -3.608594 4.190227
O26 1.614283 -2.809039 6.280462
O27 -8.133264 3.568341 -0.004464
O28 -3.542517 -1.834244 -5.615066
O29 5.278987 -0.418529 -4.966948
O30 -2.915049 -0.321664 -1.083446
O31 0.769708 -11.735169 -0.587756
O32 -5.393069 4.306250 6.994506
O33 -8.302844 -5.415655 2.400646
O34 -3.743389 4.225608 -1.565386
O35 -5.226600 1.619025 7.264170
O36 5.750769 -3.950917 4.560474
O37 4.504845 -1.702967 -7.247944
O38 3.046758 3.493110 8.162587
O39 -2.551089 -9.452084 3.745798
O40 3.041179 10.039044 -3.129280
O41 13.631717 -5.021500 1.573419
O42 3.266863 1.408908 1.678528
O43 5.898868 17.602005 -1.991088
O44 -2.828550 -5.369179 1.669840
O45 -2.743895 7.551473 -3.778733
O46 -13.177243 -5.335765 10.391190
O47 -6.553791 -9.222989 -8.458910
O48 -0.425131 5.484345 0.855781
O49 -0.989678 1.977839 5.599171
O50 -7.593315 2.490289 -15.032735
O51 -8.595241 7.010504 -1.640584
O52 -4.276549 1.449521 -2.541865
O53 5.393847 -5.531672 6.525746
O54 -0.605016 -1.235888 -14.337794
O55 5.839453 -1.619925 -2.518446
O56 -6.394724 4.811729 1.600309
O57 11.214476 14.883156 -3.291521
O58 1.180710 6.317005 -4.713742
O59 -8.887286 -8.700133 -7.119747
O60 -2.539122 0.466374 -10.815601
O61 2.131080 4.946656 11.577234
O62 1.608251 -13.411002 1.551534
O63 -3.558546 -5.301871 4.157893
O64 -0.421753 -2.513526 -4.241236
H1 -2.555280 -12.317174 7.553907
H2 -1.438737 -11.542912 6.903666
H3 7.927409 -1.435403 14.876058
H4 7.750612 -0.008763 14.087246
H5 7.157574 -8.289985 4.349418
H6 7.640632 -7.857375 5.604322
H7 -9.602117 -5.937104 5.503288
H8 -9.071487 -5.707904 3.972910
H9 -2.661365 -6.945098 8.362118
H10 -3.096460 -7.906378 9.385363
H11 5.271529 -0.419372 3.967997
H12 6.205524 -0.110104 2.708693
H13 14.245272 2.831792 -3.104011
H14 12.785166 2.585942 -2.504765
H15 1.853609 1.096668 7.474429
H16 3.392318 0.466728 7.540125
H17 -4.457695 -3.832025 -0.655091
H18 -4.186463 -3.296711 0.879473
H19 -13.810630 4.496726 6.339787
H20 -13.904041 6.036181 6.179811
H21 -0.379546 -3.889403 -1.114231
H22 0.287262 -2.646707 -0.916535
H23 6.570449 6.724942 -2.973474
H24 6.332802 7.143942 -4.526552
H25 -11.400580 3.180020 3.419413
H26 -10.659343 1.914566 3.110567
H27 -8.996890 8.952678 -0.196573
H28 -8.444836 8.568484 1.232144
H29 1.443414 5.428370 -8.377869
H30 0.059469 4.989636 -7.870113
H31 9.928581 -4.778629 5.176585
H32 11.231122 -3.996832 5.622451
H33 -0.077735 1.995260 0.724750
H34 -0.195755 2.289841 2.226364
H35 12.502238 -1.154707 -9.913170
H36 11.027341 -0.629003 -10.043867
H37 -2.957751 -8.725788 1.596955
H38 -3.554066 -7.144493 1.599327
H39 5.775518 11.593802 13.167630
H40 4.349852 10.876191 12.795683
H41 -3.221479 9.056830 3.347151
H42 -2.499882 10.245922 2.712995
H43 8.919210 9.085112 -2.629205
H44 8.998228 10.676168 -1.924651
H45 2.366266 -5.114687 -4.783498
H46 3.041809 -3.729857 -4.654939
H47 8.105242 -0.436811 -7.033352
H48 7.196108 0.301250 -7.868603
H49 12.996224 -4.098190 3.688951
H50 12.097509 -2.711433 3.802003
H51 1.105948 -3.115953 5.484435
H52 1.791715 -1.792437 6.141363
H53 -7.438947 3.894885 0.714623
H54 -8.825785 4.256099 -0.025774
H55 -2.806195 -2.449235 -5.767116
H56 -3.817787 -1.900415 -4.659473
H57 5.806182 0.385945 -4.991685
H58 5.483398 -0.752295 -4.025157
H59 -2.949994 0.586800 -1.554480
H60 -2.011355 -0.658409 -1.381390
H61 1.311125 -12.368365 0.037122
H62 1.444224 -11.373503 -1.184240
H63 -5.977536 5.138688 6.893946
H64 -4.797237 4.710724 7.623756
H65 -7.693780 -6.007141 1.898639
H66 -7.695294 -4.840303 2.851291
H67 -4.509092 4.845124 -1.714224
H68 -3.492028 4.369210 -0.655741
H69 -5.579362 2.522562 7.127631
H70 -4.714640 1.352470 6.459194
H71 5.446295 -3.057551 4.957202
H72 6.714998 -3.832709 4.547441
H73 4.701852 -1.310817 -6.415696
H74 3.783961 -2.266681 -7.242519
H75 3.887425 3.381302 8.698897
H76 2.691398 4.383672 8.319896
H77 -3.257314 -8.747198 4.189009
H78 -3.286522 -10.166799 3.532062
H79 2.330276 10.551438 -3.504216
H80 3.693086 10.704930 -3.356554
H81 14.556605 -5.223761 1.531403
H82 13.429688 -4.342205 0.786468
H83 3.609165 1.892885 0.966521
H84 4.032438 1.093853 2.196569
H85 5.138647 18.178080 -2.040484
H86 5.548886 16.665614 -2.095777
H87 -3.429906 -5.046536 0.960922
H88 -2.092736 -5.956628 1.380103
H89 -2.303850 7.444656 -4.622250
H90 -3.742195 7.469148 -3.915685
H91 -13.231091 -6.059175 11.028702
H92 -13.925109 -5.266527 9.779276
H93 -6.806994 -10.118438 -8.768066
H94 -7.200293 -9.080892 -7.678158
H95 0.171461 6.020401 1.428126
H96 -0.585018 4.584710 1.124656
H97 -1.567541 2.208359 4.822045
H98 -0.115848 1.815345 5.203927
H99 -7.112253 1.610128 -14.947257
H100 -8.121961 2.484330 -14.206022
H101 -9.323334 6.406688 -1.457546
H102 -9.054291 7.416561 -2.374026
H103 -4.307103 2.376290 -2.238546
H104 -4.276743 1.646304 -3.495252
H105 5.624317 -4.940846 5.822022
H106 4.591207 -5.176509 6.939827
H107 -0.033518 -0.542151 -14.115002
H108 -0.399798 -1.590514 -15.218405
H109 6.743158 -1.831849 -2.587008
H110 5.779972 -1.013356 -1.764101
H111 -6.344594 4.409336 2.489779
H112 -5.577359 4.486849 1.240061
H113 10.570277 15.234605 -3.936387
H114 11.319411 14.026296 -3.692305
H115 0.778643 6.288159 -3.820100
H116 0.626970 5.730651 -5.297259
H117 -9.016609 -8.728111 -6.114105
H118 -9.436222 -9.478560 -7.279265
H119 -2.516282 0.063229 -11.702404
H120 -2.138943 1.360979 -10.951983
H121 1.292183 5.172149 12.027782
H122 1.944397 4.206316 10.934921
H123 2.292834 -12.638396 1.565085
H124 2.264961 -14.214537 1.484733
H125 -3.253996 -5.355828 3.107434
H126 -4.076413 -6.153055 4.209084
H127 0.511772 -2.721837 -4.450778
H128 -0.675440 -1.658160 -4.691551
