192
1 12.414492 0.000000 0.000000 0.000000 12.414492 0.000000 0.000000 0.000000 12.414492
O1 -1.043537 -3.157804 -2.758221
O2 -6.038025 -5.566676 5.384134
O3 -6.362319 5.118532 0.369100
O4 -6.278722 4.897295 9.185003
O5 0.572871 -9.005267 2.747213
O6 5.054368 -1.935137 -11.483883
O7 10.466973 -6.429426 0.734424
O8 -7.355971 6.308673 2.689322
O9 4.913914 -10.658160 -1.182027
O10 -7.469864 4.437168 5.242739
O11 0.214895 3.103745 8.201309
O12 3.204444 -2.508425 -9.501485
O13 4.984188 -0.402565 -2.942226
O14 -1.893698 0.307264 1.414980
O15 -1.797592 1.222756 5.443030
O16 7.577446 11.144197 -8.409991
O17 11.794480 -8.429542 5.630518
O18 8.544670 -0.485635 -12.737246
O19 -10.722096 5.641350 8.946287
O20 -6.224541 3.774040 -9.526613
O21 -3.308397 6.965766 -6.404772
O22 0.843638 -2.617045 -4.726595
O23 7.484525 1.868958 -0.671311
O24 -3.319518 0.896967 -4.749036
O25 3.627291 -2.955345 11.175979
O26 2.112314 4.409337 5.093440
O27 -3.308130 3.803213 4.022760
O28 11.681371 -3.481735 -0.191996
O29 10.859792 10.101650 2.132272
O30 -4.941857 -2.971979 0.600690
O31 0.386224 -11.501435 -2.660117
O32 -6.360152 -11.792946 7.179078
O33 -8.848908 -7.179638 -0.479563
O34 -0.048446 4.464566 11.668911
O35 5.017138 -4.303163 -3.059046
O36 -0.763528 1.749596 -0.294978
O37 -10.563947 7.625885 -5.714131
O38 -3.805730 -10.669963 -10.324506
O39 0.938364 -0.609815 2.753447
O40 -2.153273 -0.741698 9.455055
O41 3.862078 3.667054 9.718445
O42 11.197846 -7.466663 9.481532
O43 2.085936 7.676934 -0.027709
O44 -3.479785 9.635980 -6.358028
O45 2.330947 -13.510878 -3.034538
O46 2.421995 -5.614262 2.593728
O47 -3.145836 2.982250 -2.935249
O48 -2.049914 -6.043221 -8.755958
O49 0.364644 7.212037 4.135822
O50 18.360351 0.131491 2.337305
O51 -8.572162 14.522502 2.651320
O52 5.157564 -1.713764 5.596658
O53 -4.358232 8.050077 -2.809135
O54 -3.450889 8.419855 -9.464616
O55 2.375634 3.199637 0.634821
O56 4.089618 -10.066841 6.989324
O57 -10.159682 12.696654 0.249486
O58 0.488475 -0.011611 -6.877578
O59 -9.138593 0.312509 -7.128196
O60 10.296370 7.156264 8.360039
O61 -4.775934 4.014958 6.431250
O62 7.622233 -1.623622 -2.823385
O63 -4.216465 6.818713 -0.298950
O64 -7.916373 -4.155109 -5.875962
H1 -1.469502 -3.941139 -3.193994
H2 -1.482575 -2.324190 -2.985743
H3 -6.123403 -6.554794 5.578132
H4 -5.092610 -5.511760 5.558151
H5 -5.542795 5.778835 0.134126
H6 -7.197498 5.430961 0.017064
H7 -6.727891 5.712278 9.203800
H8 -5.811026 4.798766 8.321708
H9 1.100070 -9.117817 3.572379
H10 0.047801 -9.874411 2.674798
H11 4.647839 -2.439237 -10.663167
H12 5.869248 -2.323538 -11.724236
H13 10.543165 -6.254783 1.685142
H14 10.884541 -7.311886 0.537793
H15 -6.663275 6.607487 3.333698
H16 -6.879222 5.871220 1.933350
H17 4.478885 -9.946996 -1.821536
H18 4.370131 -11.368684 -0.801923
H19 -8.481434 4.577564 5.226596
H20 -7.261241 4.236304 4.282701
H21 -0.396556 3.011767 7.488075
H22 0.236391 2.274536 8.738393
H23 2.959142 -3.456733 -9.645127
H24 2.283712 -2.067126 -9.614450
H25 4.000746 -0.446715 -3.037423
H26 5.160175 0.438948 -2.386400
H27 -1.267061 -0.288801 1.882707
H28 -1.397719 0.955499 0.731411
H29 -1.160273 0.509392 5.241510
H30 -2.438920 1.322842 4.726402
H31 6.965065 11.674858 -8.969832
H32 7.874361 10.368665 -8.980377
H33 11.472590 -7.554191 5.256523
H34 11.044710 -9.021608 5.254395
H35 7.890458 0.238318 -12.854901
H36 9.252271 -0.307919 -12.150108
H37 -9.760780 5.479839 9.154585
H38 -11.083831 4.726798 8.739935
H39 -6.318499 4.265995 -10.439748
H40 -5.472077 3.091393 -9.877885
H41 -2.986364 6.547400 -7.235695
H42 -3.172373 7.983527 -6.528705
H43 1.154646 -3.503351 -5.066485
H44 0.230087 -2.760559 -3.970581
H45 7.619819 2.191897 0.268756
H46 6.495316 1.820251 -0.803570
H47 -4.098070 0.718327 -5.308126
H48 -2.601807 0.953808 -5.421284
H49 4.209675 -2.354925 11.691776
H50 4.260255 -3.473862 10.639596
H51 1.882394 3.546052 5.626030
H52 1.286306 4.925771 5.217771
H53 -3.436767 2.948385 3.542345
H54 -3.012293 4.508884 3.425293
H55 11.299976 -4.368306 -0.066493
H56 11.470424 -3.248609 -1.219274
H57 11.181085 9.771076 1.249782
H58 11.575208 9.916780 2.733762
H59 -4.428110 -2.143926 0.258265
H60 -4.821504 -3.771013 -0.026652
H61 1.239305 -11.972648 -2.539657
H62 -0.469245 -12.005912 -2.768394
H63 -6.511870 -12.320385 8.044338
H64 -6.633034 -12.595957 6.548028
H65 -8.860391 -7.915217 -1.174591
H66 -9.541122 -6.477834 -0.724558
H67 0.909141 4.366429 11.636861
H68 -0.343953 4.685600 10.741984
H69 4.764270 -4.203088 -4.019303
H70 6.024835 -4.302656 -2.987092
H71 -0.401988 1.399527 -1.160382
H72 -0.635891 2.718245 -0.515997
H73 -9.665267 8.042861 -5.872267
H74 -10.215973 6.861629 -5.205543
H75 -2.990409 -11.206290 -10.647802
H76 -4.399717 -11.407738 -10.181287
H77 0.993575 -0.570862 3.785919
H78 1.398720 0.163630 2.275377
H79 -2.629151 -0.274708 8.699342
H80 -2.706768 -0.686431 10.261722
H81 4.763982 4.085445 9.539703
H82 3.689269 3.248484 8.843294
H83 10.336408 -8.091516 9.450951
H84 11.794112 -8.089445 9.014129
H85 1.268790 8.260175 0.116540
H86 2.797478 8.320112 -0.325751
H87 -3.656636 10.435983 -6.896224
H88 -3.677825 9.962946 -5.465128
H89 2.796766 -14.277030 -2.531488
H90 2.082070 -14.020387 -3.896800
H91 3.402131 -5.688131 2.765341
H92 2.210531 -5.335926 1.673556
H93 -3.662190 2.551849 -2.273870
H94 -2.956173 2.311357 -3.635993
H95 -2.556813 -5.198711 -8.933600
H96 -1.130208 -5.660928 -8.612988
H97 1.167070 7.033091 3.541101
H98 0.845481 7.399867 5.011361
H99 17.982704 -0.609320 1.800101
H100 17.593471 0.821804 2.341628
H101 -9.135841 14.877407 1.884539
H102 -7.850137 15.221818 2.726035
H103 4.411274 -1.323976 5.074076
H104 5.855756 -1.721858 4.927441
H105 -3.526370 7.574021 -3.123962
H106 -4.039307 8.970672 -2.858694
H107 -2.848489 9.133577 -9.773466
H108 -4.045477 8.358446 -10.271823
H109 1.588611 3.214018 1.268783
H110 2.814426 4.064780 0.690776
H111 4.947016 -10.606153 7.189428
H112 4.419349 -9.311866 6.350454
H113 -10.543357 12.452009 -0.581648
H114 -10.379959 13.641736 0.266651
H115 0.318971 -0.793548 -6.263722
H116 1.406805 0.314639 -6.654969
H117 -8.837463 0.956040 -6.458391
H118 -9.149011 0.795761 -7.966814
H119 10.711411 6.298114 8.664770
H120 10.020868 7.063141 7.427806
H121 -4.329185 4.106086 5.571873
H122 -5.656868 3.789008 6.314577
H123 7.767492 -1.486337 -1.861417
H124 6.657407 -1.664920 -2.837812
H125 -3.346311 6.405305 0.170259
H126 -4.073493 7.336265 -1.188297
H127 -7.080208 -4.555005 -6.375663
H128 -7.835430 -3.247226 -6.172071
