192
1 12.414492 0.000000 0.000000 0.000000 12.414492 0.000000 0.000000 0.000000 12.414492
O1 -1.330652 5.499675 -14.100670
O2 0.754472 -10.821488 -0.145921
O3 -5.865774 2.916512 -4.929903
O4 3.114236 10.476065 -2.646883
O5 -3.357688 1.543677 -10.961261
O6 -5.022245 5.828898 1.207007
O7 -1.597204 -4.048732 10.407336
O8 -2.721697 10.646646 -6.015222
O9 9.218599 -8.402992 6.822405
O10 -8.378413 3.220681 2.947671
O11 2.290096 -3.510300 3.237051
O12 0.714346 -1.192648 -6.371849
O13 -0.444665 6.051337 5.864829
O14 -16.662397 -3.364260 -1.495164
O15 2.383826 -0.879463 -9.480482
O16 3.516178 -2.923529 -6.738715
O17 4.444053 0.233698 -2.796063
O18 -4.391152 -2.466588 4.412995
O19 -4.975180 -0.631725 2.885425
O20 5.278009 0.288675 -0.386131
O21 9.304547 6.073146 5.683532
O22 -0.039947 -5.123378 -9.130621
O23 2.346175 -5.723165 -4.191682
O24 -0.632444 -2.775480 -0.242397
O25 -14.271136 -8.759894 2.521039
O26 0.776285 4.545315 -3.252401
O27 -3.914951 -7.176731 -1.296581
O28 2.964034 0.867092 1.024187
O29 -5.625998 6.895254 -2.652810
O30 -2.400250 -12.008715 -7.339998
O31 0.036707 2.977844 -7.575502
O32 4.503091 3.345987 -1.797671
O33 -9.476124 1.436013 7.629414
O34 -1.897675 0.857178 9.958526
O35 1.900250 -9.993192 10.063460
O36 -6.007641 5.322466 5.882949
O37 12.257778 4.098796 0.422458
O38 2.896641 -9.221673 5.170125
O39 7.964280 2.264172 17.699771
O40 -13.602159 8.878871 -4.475882
O41 3.458677 -6.829882 -9.389823
O42 8.639687 -0.899290 -3.465495
O43 -5.645800 2.539737 -0.186913
O44 -1.384560 0.220812 0.096988
O45 0.038064 0.503870 3.975118
O46 -4.058501 -9.911700 9.823939
O47 6.774578 10.607985 0.343323
O48 -4.246607 -4.364545 7.599498
O49 10.774766 -3.082550 -9.961336
O50 -8.180492 -6.256233 -14.548093
O51 1.488561 -6.349483 1.409282
O52 9.575685 -6.319694 3.008594
O53 -10.866408 9.182813 7.833309
O54 6.622053 3.941633 -9.368977
O55 -0.803216 3.084447 7.430633
O56 2.396481 5.682452 5.576905
O57 3.736889 -5.003135 -12.130602
O58 -5.590367 0.158725 -4.760139
O59 -7.542395 0.119326 3.590480
O60 4.736215 -0.658303 -6.256197
O61 -0.852545 12.820205 7.594370
O62 1.995124 10.180656 0.089872
O63 6.207767 -3.499944 5.667359
O64 6.224110 -4.159597 1.954864
H1 -0.643919 5.081867 -14.717858
H2 -1.074381 4.921724 -13.317690
H3 1.504916 -11.168067 0.540829
H4 -0.110664 -11.404405 0.140268
H5 -6.113895 3.764033 -5.418094
H6 -4.985861 3.163816 -4.547078
H7 2.624650 10.023974 -3.342761
H8 2.526732 10.622525 -1.867670
H9 -3.950505 1.945521 -11.672373
H10 -4.066666 1.095602 -10.387534
H11 -4.240045 6.155232 1.738649
H12 -4.521025 5.817259 0.314113
H13 -1.413076 -5.017624 10.595411
H14 -1.362775 -3.688132 9.489021
H15 -3.284649 11.124257 -5.364145
H16 -3.436432 10.375057 -6.720561
H17 10.221131 -8.681290 7.001254
H18 8.877970 -9.087400 6.107189
H19 -7.434368 3.339749 2.753976
H20 -8.525028 2.639130 3.753210
H21 2.846821 -4.040958 2.571895
H22 1.430702 -4.102251 3.299760
H23 0.501917 -0.565511 -7.080904
H24 1.651582 -1.550552 -6.427257
H25 -1.420897 5.991086 5.916415
H26 -0.184714 6.523855 6.680711
H27 -17.189979 -4.161110 -1.950928
H28 -15.765409 -3.709597 -1.548057
H29 2.248767 -1.915076 -9.567032
H30 2.510590 -0.610036 -10.398735
H31 3.069307 -3.129827 -7.541244
H32 3.909109 -2.010263 -6.820566
H33 3.961376 -0.682355 -2.935495
H34 5.173702 0.045645 -3.442887
H35 -5.205878 -2.789413 4.962594
H36 -4.041806 -3.338325 4.137299
H37 -4.552943 -1.334819 3.450163
H38 -5.056592 -1.086719 1.985145
H39 4.873169 0.005739 -1.311990
H40 5.667453 -0.596488 -0.023780
H41 8.707451 6.756549 6.073186
H42 9.147766 5.207485 6.252174
H43 0.196122 -5.835968 -9.763983
H44 -0.223992 -5.588331 -8.305794
H45 3.237877 -5.773436 -3.841984
H46 2.335855 -6.131640 -5.162575
H47 -1.106205 -3.275623 -0.924967
H48 -0.846352 -3.032535 0.670503
H49 -14.646916 -7.779305 2.535658
H50 -14.943627 -9.431994 2.188765
H51 1.367820 3.729709 -2.995364
H52 1.266354 5.313092 -3.665585
H53 -2.893554 -6.972460 -1.600489
H54 -4.154600 -7.965965 -1.832264
H55 3.709015 0.693514 0.350060
H56 3.246958 1.596495 1.683684
H57 -6.470062 6.752240 -2.138636
H58 -5.037446 6.119505 -2.279878
H59 -1.583049 -12.035799 -7.806335
H60 -2.568449 -12.935731 -7.022705
H61 -0.393332 3.165268 -6.683531
H62 -0.502623 3.256265 -8.312584
H63 5.118348 2.819455 -2.398549
H64 3.572510 3.182795 -2.164169
H65 -9.568960 0.519343 7.330731
H66 -8.820487 1.356601 8.348057
H67 -1.487295 0.745027 10.889241
H68 -1.217252 0.685313 9.194076
H69 2.156175 -10.699551 9.419268
H70 1.431198 -10.423063 10.875455
H71 -6.868439 5.624203 5.529926
H72 -5.685938 5.166569 4.966964
H73 11.591091 3.880004 1.290783
H74 12.660023 3.216698 0.194217
H75 3.387090 -9.661039 5.882196
H76 2.004560 -9.549359 5.189343
H77 8.695579 1.609851 17.554578
H78 7.415834 1.881391 18.453463
H79 -14.111655 9.546607 -4.973673
H80 -12.678070 8.989251 -4.799111
H81 2.990735 -6.672485 -8.536970
H82 3.775068 -7.757033 -9.233414
H83 9.288081 -0.388357 -2.962298
H84 8.516229 -1.713323 -2.992906
H85 -6.327599 3.189724 -0.141457
H86 -6.140598 1.644375 -0.320678
H87 -1.986804 0.498064 0.800689
H88 -1.184903 -0.769057 0.002973
H89 0.715974 -0.040428 3.447701
H90 0.225860 1.449210 4.192233
H91 -4.429197 -10.339030 10.644188
H92 -3.214450 -10.314931 9.731166
H93 6.569721 9.776836 0.820332
H94 7.371075 10.239338 -0.312635
H95 -4.664631 -4.712471 8.451362
H96 -3.259276 -4.359363 7.560815
H97 10.798562 -2.103115 -9.651636
H98 11.669185 -3.372271 -9.685050
H99 -8.386147 -5.746333 -13.654609
H100 -8.038558 -7.216001 -14.414974
H101 2.193768 -6.707471 2.117518
H102 1.000222 -7.129582 0.987959
H103 9.304478 -6.338775 3.990998
H104 10.330817 -5.763918 2.982940
H105 -10.407040 9.246045 6.990496
H106 -10.443022 8.270610 8.135765
H107 7.273933 3.378986 -8.901142
H108 7.033177 4.527486 -10.090074
H109 -0.663748 2.058573 7.521521
H110 -0.081515 3.539133 7.961431
H111 1.439002 5.821210 5.323850
H112 2.627796 4.689586 5.441992
H113 4.309022 -4.533654 -11.433667
H114 2.873955 -5.427089 -11.816601
H115 -4.872027 -0.118632 -4.095657
H116 -5.712138 1.138379 -4.741572
H117 -6.639247 -0.067631 3.131317
H118 -8.235904 -0.507085 3.345075
H119 4.816471 -0.155247 -7.165024
H120 5.568886 -0.527269 -5.769909
H121 -1.587484 12.753267 6.957951
H122 -0.244209 12.167581 7.136459
H123 2.553823 9.353070 0.175638
H124 1.122107 9.855360 -0.208496
H125 6.562842 -4.098815 6.317885
H126 5.194908 -3.521808 5.710917
H127 5.936384 -4.149090 2.821762
H128 6.389462 -5.039435 1.530710
