192
1 12.414492 0.000000 0.000000 0.000000 12.414492 0.000000 0.000000 0.000000 12.414492
O1 -7.105322 -4.044490 -3.010904
O2 2.340570 0.837310 -0.149108
O3 2.231149 2.366556 -9.991234
O4 1.217303 15.113231 -6.381142
O5 -1.926864 2.020371 -2.588301
O6 -11.324147 5.999741 2.148443
O7 -4.428346 2.937035 -4.915983
O8 4.061121 -7.803333 -10.235747
O9 5.519165 -2.515376 11.467179
O10 -0.014769 3.422074 1.552440
O11 1.452320 -3.739021 -1.395043
O12 1.080757 10.821339 19.705368
O13 -4.795946 -3.052326 -6.473734
O14 12.099221 3.587040 -1.184774
O15 8.385114 6.572437 2.643290
O16 7.674727 -3.918024 8.477388
O17 -3.193222 -0.029787 -6.421193
O18 2.243669 0.844930 4.677602
O19 -2.721046 7.741612 9.992978
O20 15.927157 0.140983 -2.702285
O21 -7.500247 -0.755366 2.200130
O22 1.620802 -10.368162 8.697618
O23 -0.120249 8.324324 -10.358964
O24 -3.917694 -1.186404 -3.459225
O25 -6.609179 0.562640 -0.174240
O26 9.372976 -1.841386 -0.486570
O27 1.854523 -5.861011 -3.350704
O28 -2.633848 -4.217811 0.806294
O29 -1.956924 2.083051 2.737193
O30 -1.657135 -4.733729 4.202656
O31 -13.947586 -0.607969 3.211668
O32 12.029133 -1.708209 -1.840054
O33 2.284528 -2.794737 2.556248
O34 3.141768 -1.923488 0.102897
O35 -5.902520 9.715149 1.604139
O36 -13.703947 9.045929 -4.083289
O37 -4.983656 2.418232 3.321304
O38 2.613034 -6.048417 12.181582
O39 8.385960 5.654426 7.933212
O40 -8.366757 -4.046396 -7.875316
O41 2.117346 6.270310 4.974913
O42 4.898903 3.326585 9.209113
O43 6.115487 -9.263444 0.857207
O44 -2.527491 -7.355300 -2.169070
O45 2.366278 4.087830 -1.609534
O46 -2.082213 2.856773 -6.388873
O47 3.600493 -14.589575 -4.044774
O48 8.992866 -2.535221 3.597251
O49 -6.887270 7.139167 -9.877020
O50 0.649189 -6.966517 -5.354692
O51 5.202609 2.638299 -5.678224
O52 5.108272 0.431749 4.706491
O53 -1.716831 -5.375978 -5.509576
O54 5.135417 -1.834064 -6.236926
O55 -5.543051 6.224737 -6.755143
O56 0.925877 -1.299823 4.526505
O57 -0.176223 0.265353 8.724625
O58 -0.640821 -12.181908 -11.825028
O59 4.556514 4.784901 -7.417459
O60 4.486556 5.855888 -2.600188
O61 -3.630659 -7.833016 4.371756
O62 -3.357835 -11.581688 -0.490531
O63 -5.872024 0.482165 9.721497
O64 -4.249849 -7.598684 -0.137607
H1 -6.886364 -3.523455 -2.117447
H2 -7.339800 -5.073622 -2.842068
H3 1.357422 0.558851 0.136565
H4 2.832783 1.121332 0.664453
H5 2.709435 3.221780 -9.849501
H6 2.264864 1.809693 -9.179687
H7 0.231956 15.119548 -6.535321
H8 1.485295 14.858770 -5.425302
H9 -2.559598 2.464754 -3.218730
H10 -1.462706 1.426923 -3.209966
H11 -10.632924 5.885861 1.402834
H12 -10.805700 5.952372 2.994824
H13 -4.524517 2.437275 -4.089835
H14 -4.342145 3.911845 -4.562921
H15 4.384130 -7.597894 -9.310822
H16 4.795200 -8.287630 -10.718396
H17 6.057409 -2.768095 12.225500
H18 4.635149 -2.111338 11.822390
H19 0.863108 3.136131 1.860252
H20 0.097405 4.393126 1.837350
H21 2.265040 -3.117931 -1.438136
H22 0.681112 -3.107831 -1.442397
H23 1.907364 10.434304 20.017407
H24 1.164099 10.913471 18.739164
H25 -4.595733 -3.322779 -5.534839
H26 -4.051895 -2.884508 -7.060240
H27 11.341648 2.978926 -1.411952
H28 12.247341 3.615811 -0.152122
H29 8.924067 7.249953 2.221926
H30 7.456407 6.945115 2.663051
H31 6.718789 -3.970069 8.941534
H32 8.439154 -4.136092 9.144073
H33 -2.853916 0.899427 -6.401921
H34 -2.672643 -0.429595 -7.204090
H35 1.791883 1.529156 5.234522
H36 3.129981 0.752396 5.093761
H37 -2.055041 8.251226 9.435279
H38 -2.706110 8.049760 10.894869
H39 15.899006 0.340438 -1.715337
H40 15.227661 0.690751 -3.150272
H41 -7.073288 -1.657637 2.189280
H42 -8.379867 -0.756583 1.745456
H43 1.696313 -9.814164 9.501241
H44 0.816396 -10.942591 8.766378
H45 0.314217 7.494984 -10.605204
H46 -0.198119 8.294447 -9.398927
H47 -4.340823 -1.887143 -3.966803
H48 -3.431817 -0.722831 -4.196846
H49 -6.755376 -0.242052 0.314115
H50 -6.413932 0.350637 -1.164197
H51 9.401405 -0.861267 -0.310250
H52 8.843127 -1.843394 -1.284198
H53 2.810063 -6.111921 -3.267497
H54 1.797379 -5.030629 -2.811942
H55 -2.902225 -3.301906 0.770693
H56 -1.855298 -4.171008 1.466603
H57 -2.782341 2.437233 2.349228
H58 -1.183708 2.464400 2.256114
H59 -1.798914 -5.640058 3.830149
H60 -1.757817 -4.802954 5.193919
H61 -13.028869 -0.671203 3.596864
H62 -14.225899 0.348627 3.046827
H63 12.050898 -1.189527 -0.964187
H64 11.054057 -1.900239 -1.808595
H65 1.447435 -3.312061 2.283744
H66 2.843346 -3.371750 3.208023
H67 2.817106 -2.351037 0.917547
H68 2.684759 -1.051125 0.070858
H69 -6.344700 8.816837 1.667193
H70 -5.203190 9.614717 2.270590
H71 -12.935847 9.600609 -4.051192
H72 -13.557368 8.280566 -4.821278
H73 -5.545103 2.474501 2.513869
H74 -5.104106 1.503344 3.522595
H75 2.420280 -6.766114 11.585467
H76 2.223611 -5.210624 11.739152
H77 8.339280 6.426598 8.560622
H78 7.761502 5.970901 7.217075
H79 -8.915519 -4.673111 -7.435934
H80 -8.279638 -3.281447 -7.224440
H81 2.822657 5.613142 4.932792
H82 1.714800 5.976019 5.761627
H83 4.798922 3.236539 8.229001
H84 4.040464 3.181174 9.543028
H85 6.777096 -8.804462 0.317134
H86 5.909139 -10.071530 0.297653
H87 -2.539937 -6.372081 -2.285647
H88 -1.684045 -7.517755 -1.730975
H89 2.878357 3.599375 -0.951962
H90 1.349437 3.893213 -1.584204
H91 -2.492148 3.143079 -7.240866
H92 -2.848046 3.040231 -5.792191
H93 4.209127 -15.276293 -3.614416
H94 3.674780 -13.739646 -3.518766
H95 9.555157 -1.737723 3.407924
H96 9.576316 -3.424321 3.678427
H97 -7.544110 7.513012 -9.296811
H98 -7.384047 6.434084 -10.343706
H99 0.695977 -7.960294 -5.343132
H100 0.813153 -6.641968 -4.420078
H101 6.200971 2.829364 -5.744632
H102 5.012295 1.825451 -6.142285
H103 5.253743 -0.450183 5.140324
H104 5.037778 0.196906 3.773466
H105 -2.650749 -5.758542 -5.492559
H106 -1.178447 -6.196645 -5.565074
H107 6.077144 -2.219468 -6.179583
H108 4.664170 -1.981493 -5.370701
H109 -4.777291 5.758991 -7.144007
H110 -5.332702 7.225184 -6.794736
H111 1.350873 -1.911901 3.812386
H112 1.461801 -0.465130 4.619311
H113 0.265901 -0.335726 8.053312
H114 -0.412593 -0.382027 9.372597
H115 -0.935899 -12.534543 -10.905750
H116 -1.395238 -11.660394 -12.076440
H117 5.212523 5.402325 -7.099900
H118 4.587658 4.024964 -6.791807
H119 4.798577 4.897645 -2.937719
H120 4.304633 5.765006 -1.578448
H121 -3.456369 -7.217603 3.556874
H122 -4.050891 -8.562096 3.881029
H123 -4.319981 -11.525746 -0.344199
H124 -3.243018 -11.355480 -1.435845
H125 -5.077763 -0.164507 9.508005
H126 -6.596328 0.041259 9.160883
H127 -3.581246 -7.473594 -0.987350
H128 -3.829617 -7.072979 0.585714
