192
1 12.414492 0.000000 0.000000 0.000000 12.414492 0.000000 0.000000 0.000000 12.414492
O1 -0.851258 -2.590400 -2.845214
O2 -3.359487 -7.310590 4.669091
O3 -8.275715 8.207191 1.018610
O4 -6.727825 10.086296 12.040541
O5 -5.346253 -6.684274 0.779411
O6 7.105363 -4.274062 -10.832550
O7 10.908647 -5.428401 2.666154
O8 -13.595834 9.778471 6.575548
O9 4.529437 -11.383347 -3.997270
O10 -6.713903 2.028563 4.611819
O11 4.097560 3.249881 6.807218
O12 5.902262 -1.070081 -9.210026
O13 3.383325 -2.564598 -3.171977
O14 -0.033385 3.533550 1.037039
O15 -0.395236 1.310405 7.139752
O16 4.194075 9.012184 -8.507974
O17 10.345080 -9.615134 4.843773
O18 8.406551 0.877780 -13.837203
O19 -10.695374 4.235004 9.602624
O20 -10.443154 4.924432 -10.022350
O21 -0.755627 13.832768 -9.707241
O22 2.570451 -5.335982 -4.035226
O23 5.282470 1.901214 -1.479710
O24 -3.828530 0.576776 -7.332115
O25 6.937809 -7.631284 9.112208
O26 3.855686 2.941288 2.728997
O27 -5.448819 1.498845 2.078428
O28 9.995980 -1.932118 0.952770
O29 9.536539 13.234684 1.159317
O30 -7.907184 -0.088011 0.098868
O31 0.347872 -14.404839 0.334565
O32 -5.858763 -15.414314 9.001653
O33 -9.514040 -6.240026 -0.229613
O34 0.618006 7.750987 13.244438
O35 7.767075 -5.489395 -4.625593
O36 -3.074088 2.429087 -3.882792
O37 -5.784854 6.110045 -8.358526
O38 -6.909535 -8.735662 -11.816558
O39 -2.740812 4.615908 1.605031
O40 -4.116263 -1.959641 11.473493
O41 6.749525 0.237447 6.972939
O42 12.814140 -5.451120 10.428027
O43 2.222612 11.655979 -1.568555
O44 -0.949573 12.527599 -2.774148
O45 4.164117 -19.306752 -2.503830
O46 2.157198 -4.388114 5.814102
O47 -1.505999 5.041146 -4.317137
O48 -3.908658 -2.114690 -6.891892
O49 1.385710 3.586084 6.900424
O50 13.358101 -1.953697 5.159375
O51 -11.813562 14.691673 -1.192612
O52 6.521661 -3.842602 5.665598
O53 -5.015094 3.288522 -5.832964
O54 0.770856 11.575856 -9.833063
O55 0.417495 5.837723 4.445918
O56 4.738614 -14.530843 6.964756
O57 -9.083296 12.734727 2.413625
O58 1.846489 0.777767 -3.690480
O59 -9.082016 -0.766343 -7.137425
O60 10.046702 7.057568 6.230271
O61 -7.350978 5.720246 6.210943
O62 9.904944 -4.786254 -2.046951
O63 -3.378706 4.733239 -1.737977
O64 -3.172584 -3.344814 -9.407713
H1 -0.114399 -2.655371 -2.328813
H2 -0.886344 -1.611101 -3.009393
H3 -4.220912 -6.952055 4.320396
H4 -2.840192 -6.601673 5.096116
H5 -7.717677 8.770956 0.431585
H6 -8.706050 7.527319 0.458468
H7 -5.779442 10.322526 11.885681
H8 -7.076877 9.856735 11.098790
H9 -4.521184 -6.958960 1.154898
H10 -5.321802 -5.696788 1.146400
H11 7.819387 -3.702119 -10.388867
H12 6.466951 -3.775628 -11.365518
H13 11.461494 -5.852926 3.419463
H14 11.546070 -5.237958 1.986760
H15 -13.453010 9.786324 7.556986
H16 -12.756169 9.817139 6.126831
H17 4.748348 -11.203180 -3.091447
H18 3.557290 -11.480817 -4.003736
H19 -6.081907 2.375574 5.250005
H20 -7.202858 2.533786 3.906465
H21 4.379974 2.755402 5.979859
H22 4.412792 2.623577 7.544860
H23 6.212499 -0.671629 -8.372939
H24 5.938688 -0.221194 -9.864722
H25 3.080055 -3.499017 -3.316778
H26 2.947798 -2.292596 -2.318862
H27 -0.866711 4.047607 1.156563
H28 -0.014125 3.105144 0.132203
H29 0.154839 2.129244 6.887369
H30 -0.963395 1.251505 6.351549
H31 4.701732 9.815786 -8.697156
H32 3.952384 8.693742 -9.442318
H33 9.943688 -8.719957 4.782792
H34 11.028796 -9.771165 4.201694
H35 8.373101 -0.068211 -13.803803
H36 8.787023 1.084887 -12.965882
H37 -9.783543 4.374043 9.810962
H38 -10.641163 4.156652 8.564311
H39 -11.089063 4.317944 -10.444236
H40 -9.742388 4.333820 -9.617540
H41 -1.611584 13.613271 -10.091437
H42 -0.359101 14.550756 -10.195704
H43 2.527263 -5.106920 -4.976216
H44 1.696669 -5.089190 -3.625783
H45 5.061453 1.038504 -0.877347
H46 6.244206 1.682005 -1.510593
H47 -4.521166 0.825171 -6.639050
H48 -3.324757 1.406676 -7.462184
H49 7.016065 -8.128060 8.324843
H50 7.706316 -7.897202 9.695551
H51 3.570617 1.985792 2.646183
H52 4.371101 3.122522 1.913927
H53 -5.772697 1.749260 2.949336
H54 -5.839875 2.089202 1.371161
H55 10.956551 -1.747476 0.813570
H56 9.754671 -2.501816 1.664218
H57 9.374268 12.299663 1.078301
H58 8.795687 13.536172 1.729309
H59 -8.271574 0.188795 0.928872
H60 -7.783776 -1.100736 0.084219
H61 0.950385 -13.932103 -0.366850
H62 0.639592 -15.392947 0.397111
H63 -6.648110 -15.105581 8.557975
H64 -5.399977 -15.995415 8.393158
H65 -8.990299 -6.607408 -1.068277
H66 -9.473326 -6.855521 0.502736
H67 1.573466 7.474429 13.248612
H68 0.391410 7.467715 12.272604
H69 6.997189 -5.358553 -5.253562
H70 7.556424 -6.349861 -3.975191
H71 -3.587577 1.938046 -3.178686
H72 -2.947099 3.284211 -3.487165
H73 -6.230608 5.800717 -9.129302
H74 -6.308976 6.040554 -7.502731
H75 -6.605705 -7.809520 -11.857775
H76 -7.157846 -9.086347 -12.678158
H77 -2.821597 4.415807 2.593566
H78 -2.538494 5.658393 1.831989
H79 -4.245778 -2.569640 10.770240
H80 -3.247296 -2.085292 11.938466
H81 6.078252 0.643506 7.618590
H82 6.343976 -0.649028 6.841844
H83 11.819129 -5.535347 10.312260
H84 13.070314 -6.338682 10.332833
H85 1.892936 12.148686 -2.374593
H86 3.087054 11.960705 -1.136634
H87 -0.982572 13.135696 -3.549012
H88 -1.813576 12.661241 -2.517620
H89 4.915427 -19.623453 -3.123374
H90 3.556824 -18.733352 -3.134885
H91 2.860833 -4.254181 5.219006
H92 1.595066 -3.590705 5.534983
H93 -0.710669 4.569640 -4.644473
H94 -1.655801 5.871143 -4.864874
H95 -3.908061 -1.118079 -6.996767
H96 -3.166174 -2.263516 -6.157058
H97 1.154533 4.359604 6.360546
H98 2.291826 3.250132 6.567856
H99 13.380636 -1.646829 4.218734
H100 14.169402 -1.441813 5.525179
H101 -11.819760 15.483447 -1.786103
H102 -12.579974 14.063351 -1.456372
H103 5.818092 -4.055456 4.920041
H104 7.199674 -3.217449 5.272206
H105 -4.445119 3.744793 -6.415248
H106 -4.481777 2.732639 -5.247017
H107 0.670206 11.020816 -10.606960
H108 0.143251 12.301498 -9.833277
H109 1.073679 5.617850 3.794914
H110 0.856230 6.643586 4.866251
H111 3.945668 -14.797391 7.460668
H112 5.300313 -15.195847 6.456117
H113 -10.076328 12.302915 2.326022
H114 -8.523023 12.220343 2.995886
H115 1.136705 0.942128 -4.378249
H116 1.731292 1.605414 -3.181409
H117 -8.748066 0.099864 -6.879630
H118 -8.500809 -1.384419 -6.437904
H119 9.140224 7.173847 6.676511
H120 10.544865 7.909277 6.215868
H121 -8.318186 5.933244 5.962243
H122 -7.522138 4.813198 6.559153
H123 10.340216 -4.023569 -2.556424
H124 9.408355 -5.205951 -2.746818
H125 -2.583486 5.316492 -1.890735
H126 -3.591118 4.865716 -0.842715
H127 -2.572084 -4.182770 -9.400173
H128 -3.158613 -2.928394 -8.444350
