192
1 12.414492 0.000000 0.000000 0.000000 12.414492 0.000000 0.000000 0.000000 12.414492
O1 0.158067 -0.983926 -15.326321
O2 1.973891 7.915904 13.736382
O3 -17.320150 2.386027 4.278794
O4 1.855926 -2.002457 -0.418171
O5 2.943005 6.439150 -3.665225
O6 -9.647840 -0.019265 1.349657
O7 -3.571201 -6.384686 -6.379641
O8 -5.945842 -0.970385 2.354370
O9 10.930819 0.928836 -3.480657
O10 6.001982 -8.595851 6.280089
O11 7.128788 5.609118 3.969489
O12 -1.430741 -5.871839 11.547987
O13 -9.326464 -8.552986 -10.527635
O14 -3.209554 10.997311 3.492917
O15 1.001071 5.947526 -0.482592
O16 2.039546 1.073307 -3.681980
O17 4.814126 7.182551 -2.041595
O18 -1.822722 0.409085 -6.258077
O19 0.516869 0.217037 4.670858
O20 -3.966721 -9.638803 0.401835
O21 4.800298 9.798005 -26.391152
O22 3.912706 -1.202983 -8.956534
O23 1.001774 15.132159 -6.042252
O24 -5.988484 -0.988426 -3.324215
O25 4.786665 -4.345722 6.904258
O26 -9.547231 -2.779165 -5.099961
O27 -2.887172 -5.677966 1.387710
O28 0.634929 -17.825908 -6.304688
O29 -5.897483 3.235049 -3.563718
O30 -4.977715 5.613687 -15.281619
O31 7.937061 1.214942 -2.156355
O32 -1.194001 2.452388 -12.106659
O33 -2.403836 -3.836742 4.840509
O34 3.095985 3.263189 4.781603
O35 -6.921969 -3.343725 4.450546
O36 1.858443 4.447132 -2.304148
O37 12.625641 0.444823 1.626651
O38 1.827970 10.280862 5.019781
O39 3.602657 6.577918 2.786011
O40 -0.009543 8.716939 -4.336150
O41 -5.969262 -2.834856 0.646163
O42 -1.242270 -7.340208 -9.319010
O43 -0.525049 9.306022 11.618350
O44 11.084482 -1.672987 1.403371
O45 -0.806311 -7.761956 5.741982
O46 -8.955811 5.856212 5.490671
O47 8.001519 -16.631105 15.465640
O48 16.534031 -0.430690 -4.690829
O49 -4.085626 -15.402024 -3.691316
O50 -8.275262 14.909067 -2.634046
O51 -4.125789 8.700313 11.523783
O52 12.856046 -8.198033 1.438337
O53 -14.898010 1.352596 3.058720
O54 -5.006884 -7.155571 0.297110
O55 6.256093 1.554215 14.026054
O56 -8.207981 -10.357017 12.511291
O57 -0.633567 3.399855 9.774558
O58 -7.813536 0.960881 -7.157800
O59 -1.952886 5.771868 -3.399779
O60 -4.061720 1.989756 6.731296
O61 5.579939 -5.212223 13.045436
O62 0.557845 -3.358132 3.240719
O63 -1.924369 -2.247018 -5.636180
O64 7.171413 -5.070067 -4.838592
H1 0.943314 -0.425912 -15.264945
H2 0.242706 -1.360971 -14.339239
H3 2.062009 8.724624 13.212661
H4 1.700565 7.244760 13.055724
H5 -16.386890 2.310907 3.910878
H6 -17.927199 2.395773 3.544249
H7 2.055626 -1.218909 0.213424
H8 2.730614 -2.100487 -0.821836
H9 2.357269 7.096019 -4.034981
H10 3.695468 6.935105 -3.242805
H11 -9.101063 0.659386 0.864634
H12 -9.179232 -0.286327 2.277107
H13 -4.089740 -6.723953 -7.161578
H14 -2.878996 -5.660270 -6.528865
H15 -5.669929 -1.551578 1.546421
H16 -6.873358 -1.073338 2.632162
H17 10.818482 0.755093 -4.495779
H18 11.327081 0.098658 -3.111633
H19 5.779774 -7.959980 5.559100
H20 5.886648 -8.139521 7.096533
H21 7.320834 4.656418 3.768691
H22 7.166887 6.290416 3.268545
H23 -0.489799 -6.136676 11.558402
H24 -1.702695 -6.416679 10.751047
H25 -10.234913 -8.461330 -10.751234
H26 -9.260356 -7.600470 -10.314876
H27 -3.273058 10.217374 4.094564
H28 -4.149340 11.231772 3.178894
H29 1.420721 5.279147 -1.176507
H30 0.743851 5.209225 0.236717
H31 1.745327 1.846637 -4.219984
H32 2.766651 0.598851 -4.193879
H33 4.785694 7.009020 -1.050484
H34 5.493456 6.526652 -2.303213
H35 -1.122834 0.402295 -6.953365
H36 -2.304517 1.221196 -6.357621
H37 0.473536 0.291279 3.754254
H38 1.010498 -0.582861 4.865756
H39 -3.907949 -10.409216 -0.220832
H40 -3.078646 -9.573819 0.854868
H41 5.176633 10.410419 -27.167398
H42 4.751514 8.824899 -26.657426
H43 3.174819 -1.555419 -8.240122
H44 4.221979 -0.389887 -8.477133
H45 0.571677 14.408762 -6.531603
H46 1.759680 15.383853 -6.660870
H47 -5.287141 -1.536915 -3.633730
H48 -6.663379 -0.726402 -3.960824
H49 4.787762 -4.033596 5.922113
H50 5.813336 -4.597533 7.173908
H51 -8.715127 -3.433751 -5.139500
H52 -9.910254 -2.823536 -4.203313
H53 -2.396128 -5.788621 0.522461
H54 -3.414722 -4.857743 1.354876
H55 1.480998 -18.039537 -6.714719
H56 0.140903 -18.675139 -6.486456
H57 -5.339950 2.632070 -3.018944
H58 -6.813995 3.034858 -3.402465
H59 -5.351961 4.636007 -15.340380
H60 -4.896889 5.675010 -14.313746
H61 8.548107 0.679351 -2.765526
H62 7.235157 0.546139 -2.411363
H63 -0.980847 2.624910 -13.051153
H64 -0.557121 1.742575 -11.776616
H65 -2.252949 -3.112197 5.438709
H66 -1.558186 -4.167746 4.546344
H67 2.994447 3.395656 3.840669
H68 3.295320 4.162898 5.139495
H69 -7.134984 -4.027350 3.750173
H70 -7.317899 -2.553530 4.029295
H71 2.328136 5.213537 -2.894813
H72 2.654775 3.828088 -2.264256
H73 12.331845 -0.504819 1.441835
H74 13.670616 0.416487 1.536400
H75 1.964100 10.062672 5.992099
H76 1.396218 9.542508 4.484645
H77 2.909223 6.959066 2.217694
H78 4.485363 6.687501 2.290920
H79 0.130719 7.871611 -4.924772
H80 -0.412965 8.426661 -3.516592
H81 -6.574365 -2.562835 -0.094982
H82 -5.101400 -2.961052 0.068226
H83 -1.964176 -6.761561 -9.688113
H84 -1.359251 -7.317603 -8.357771
H85 -0.662399 8.373906 11.362643
H86 0.391456 9.380856 11.858443
H87 10.352187 -1.860427 2.057049
H88 11.205216 -2.384143 0.662433
H89 -0.052927 -8.439452 5.958887
H90 -1.233568 -7.735120 6.633778
H91 -9.002241 6.372214 4.691510
H92 -8.665770 6.368129 6.252120
H93 7.280387 -15.993127 15.708041
H94 8.671184 -16.583267 16.174342
H95 16.711345 0.133607 -5.457228
H96 16.051451 -1.210281 -5.015394
H97 -3.185956 -15.164995 -4.027103
H98 -4.400697 -16.168715 -4.219349
H99 -9.005163 14.388590 -3.041118
H100 -8.210972 14.799677 -1.659702
H101 -4.165504 9.100277 10.645733
H102 -3.344852 8.119772 11.553183
H103 12.368340 -7.857690 2.298798
H104 12.162992 -8.633592 0.957658
H105 -14.111575 1.472510 2.447226
H106 -14.943783 0.425656 3.350435
H107 -4.212347 -6.604641 0.588160
H108 -4.770658 -8.066702 0.593524
H109 7.080651 1.950755 13.580586
H110 6.506572 0.585205 14.479097
H111 -7.345847 -10.452124 13.067666
H112 -8.521501 -9.534690 12.957779
H113 -0.698923 2.563665 9.158753
H114 0.293722 3.692713 9.682228
H115 -8.305542 1.852846 -7.203727
H116 -6.829538 1.186763 -7.162748
H117 -2.930710 5.606495 -3.423376
H118 -1.503420 4.868041 -3.627074
H119 -4.494850 2.851630 6.828651
H120 -4.535751 1.725186 5.955840
H121 6.354897 -5.837410 13.158510
H122 5.951143 -4.259490 13.092476
H123 0.930563 -3.869289 2.521549
H124 0.050507 -2.688627 2.772175
H125 -1.041083 -2.682320 -5.246171
H126 -1.988791 -1.302929 -5.760032
H127 7.834633 -5.573714 -5.454593
H128 7.209253 -5.685370 -4.057390
