192
1 12.414492 0.000000 0.000000 0.000000 12.414492 0.000000 0.000000 0.000000 12.414492
O1 -7.033105 -0.233249 3.241477
O2 14.752942 -2.286907 0.498096
O3 6.137427 0.276408 5.948704
O4 -3.877093 8.875701 -4.642981
O5 4.152943 0.692891 -2.581755
O6 -1.400932 5.008293 -0.569353
O7 -4.568665 0.147819 1.165119
O8 -5.753413 -2.719654 3.188096
O9 -4.120755 -1.005333 -3.080681
O10 0.446727 -3.026977 14.661981
O11 3.148376 3.327133 5.651361
O12 -14.724718 -6.893898 7.956206
O13 0.327743 -2.803944 -1.301099
O14 -5.207064 4.838243 -11.346996
O15 -14.851288 3.343275 1.770483
O16 6.916245 0.862924 -1.510249
O17 -1.821425 -0.035178 -4.603837
O18 4.272605 -4.033176 4.030851
O19 -0.902575 3.446636 -6.325791
O20 0.204591 1.494659 -4.506855
O21 13.282022 6.602068 1.962283
O22 14.983625 -9.218938 -1.842152
O23 11.070969 -1.467282 0.956878
O24 8.398325 -8.666004 -3.655081
O25 3.757974 6.146723 2.190920
O26 -11.300469 -3.369993 -5.881173
O27 1.495898 -6.609054 -4.986872
O28 -5.612982 5.145105 -14.216254
O29 -2.145397 7.352781 16.066993
O30 3.446246 7.639710 -12.361486
O31 -3.800909 -2.926598 4.813146
O32 6.012838 -2.977417 -1.094772
O33 8.968564 0.806079 -6.965770
O34 -6.179972 -1.673431 7.770026
O35 2.391833 -2.059288 3.931157
O36 1.871847 1.416645 -12.347039
O37 -2.642400 10.020249 -1.566695
O38 -0.116415 6.940789 5.342983
O39 -10.692506 -3.009392 -3.459426
O40 -0.945877 1.582659 0.663830
O41 0.873953 -8.071567 -7.796948
O42 2.691558 13.078515 2.632611
O43 -13.616950 -4.964536 -3.063248
O44 3.959303 -4.219529 -2.929512
O45 -4.464534 -4.537743 -2.078155
O46 2.232526 1.072683 6.280572
O47 5.451123 -4.313549 -5.647213
O48 -3.565218 -6.485546 -7.340914
O49 3.564263 11.291797 -4.787557
O50 4.171666 17.631809 -2.171911
O51 4.456255 -0.835407 -0.422713
O52 -6.140181 -10.159482 7.896016
O53 7.082394 -4.734932 1.365768
O54 -3.875458 -8.901580 -8.397301
O55 -1.457594 -0.877197 3.749234
O56 -2.542426 1.959488 10.660333
O57 -6.128031 2.802044 2.662063
O58 4.547575 4.481706 7.741814
O59 -8.842576 3.399941 2.820981
O60 -1.200731 -2.713722 -4.734349
O61 12.602158 -8.214262 -2.802872
O62 0.515718 3.898851 2.025988
O63 -5.459344 -6.745734 6.891472
O64 9.901130 7.620501 0.570300
H1 -7.109366 -0.059451 4.233880
H2 -6.613206 -1.130658 3.229539
H3 14.153350 -2.096693 1.208418
H4 14.899451 -3.217861 0.408688
H5 6.227521 1.107953 6.409137
H6 6.236065 -0.358036 6.704474
H7 -4.807341 9.134428 -4.856155
H8 -4.040034 8.259731 -3.857136
H9 5.115222 1.040349 -2.567183
H10 3.634986 1.549698 -2.300545
H11 -2.125212 4.320818 -0.536409
H12 -0.936903 4.816945 -1.375246
H13 -5.145083 -0.349996 1.850031
H14 -3.775476 -0.419990 0.972958
H15 -5.716831 -3.389315 2.439116
H16 -5.028354 -2.806982 3.846637
H17 -3.423448 -0.809443 -3.740052
H18 -4.576944 -0.220707 -2.758682
H19 0.817020 -2.758940 15.544046
H20 0.638682 -3.986687 14.563839
H21 3.415179 3.577907 4.693850
H22 2.909839 2.352543 5.697942
H23 -14.202838 -6.345997 8.655503
H24 -15.345684 -6.363783 7.450117
H25 0.841083 -2.454982 -0.472087
H26 -0.650390 -2.515124 -1.107988
H27 -4.233299 4.592015 -11.073314
H28 -5.671212 4.139981 -10.921469
H29 -14.505828 2.439874 1.503452
H30 -13.961667 3.752944 1.826786
H31 6.915478 0.731484 -0.589711
H32 7.653235 1.540600 -1.636318
H33 -2.534950 -0.014592 -5.315179
H34 -1.272848 -0.842469 -4.748272
H35 5.167010 -3.560755 3.749990
H36 4.475821 -4.265583 4.927463
H37 -0.546114 2.802817 -5.634387
H38 -1.525544 3.975536 -5.849690
H39 -0.623749 1.024488 -4.703194
H40 0.085052 2.220548 -3.845372
H41 13.112988 5.617352 2.067008
H42 13.124306 6.699366 0.991845
H43 15.701694 -8.488238 -1.817011
H44 14.709803 -9.360053 -0.884302
H45 11.535267 -2.220702 1.352793
H46 10.507153 -1.770201 0.226333
H47 8.912719 -9.106985 -2.995343
H48 9.157877 -8.168681 -4.076202
H49 4.310520 6.664788 2.840339
H50 2.845208 6.456835 2.402768
H51 -11.038002 -3.223317 -4.869142
H52 -10.921874 -2.633399 -6.422335
H53 1.829961 -6.982188 -5.842739
H54 0.674825 -6.162430 -5.226765
H55 -5.576070 4.701616 -13.322825
H56 -5.143047 4.615199 -14.866570
H57 -1.329015 7.091481 16.712677
H58 -1.751013 7.556212 15.224246
H59 3.795557 7.202236 -11.558050
H60 3.486052 6.947997 -13.054136
H61 -3.843430 -3.151350 5.794292
H62 -3.353488 -3.802280 4.489864
H63 5.532160 -2.075921 -0.880650
H64 6.238347 -3.427912 -0.241132
H65 9.591733 0.280317 -7.571555
H66 8.033458 0.615473 -7.041632
H67 -7.088873 -1.527166 8.079590
H68 -5.563977 -1.596779 8.541305
H69 3.144965 -2.653051 3.865626
H70 2.756018 -1.183280 4.214769
H71 2.142288 1.055296 -11.388275
H72 1.863115 0.650562 -12.910122
H73 -3.199161 10.750504 -2.101107
H74 -3.162942 9.245431 -1.856021
H75 0.590915 7.660363 5.495676
H76 0.360895 6.324027 4.722870
H77 -9.939995 -3.626622 -3.286495
H78 -11.312346 -2.873274 -2.699662
H79 -1.086320 0.654324 1.013121
H80 0.012427 1.544335 0.434443
H81 0.120779 -8.418005 -7.214054
H82 1.708250 -8.596974 -7.458499
H83 2.767532 13.971941 2.911280
H84 3.680340 12.859461 2.511454
H85 -13.095591 -4.706881 -2.297743
H86 -13.508035 -4.328261 -3.759750
H87 4.056527 -5.181763 -3.010156
H88 4.552516 -3.801597 -2.252581
H89 -5.206798 -3.817326 -2.008556
H90 -4.988213 -5.354352 -1.913848
H91 1.578769 1.319415 6.960471
H92 2.469904 0.112340 6.442956
H93 4.958923 -3.953758 -4.867079
H94 5.822630 -5.200629 -5.510644
H95 -3.150759 -5.812205 -7.991341
H96 -3.832126 -7.207083 -8.010490
H97 3.669558 12.002981 -4.044687
H98 2.951652 10.772248 -4.231450
H99 5.072006 17.790053 -1.827678
H100 4.450820 17.241821 -3.006498
H101 4.299762 -0.099095 -1.061434
H102 3.582201 -1.321035 -0.338715
H103 -7.007736 -9.765108 7.792167
H104 -5.470485 -9.453496 8.230822
H105 8.070828 -4.706753 1.390899
H106 6.894135 -5.767039 1.316444
H107 -3.395748 -9.509763 -7.798393
H108 -3.250098 -9.060255 -9.205956
H109 -1.566782 -1.855496 3.797237
H110 -1.645395 -0.774587 2.769991
H111 -2.369413 1.179742 10.073597
H112 -1.913357 1.822409 11.413072
H113 -5.293697 2.864809 3.276253
H114 -6.228591 1.833763 2.558256
H115 3.830998 4.008492 7.237671
H116 5.141525 4.770023 7.074842
H117 -8.937228 4.259889 2.336580
H118 -7.894519 3.240436 2.734409
H119 -0.635917 -3.019722 -5.487983
H120 -2.122537 -2.970788 -5.017221
H121 13.400709 -8.600534 -2.325025
H122 13.131970 -7.624391 -3.437320
H123 0.652060 3.807825 3.030281
H124 0.911415 3.143149 1.572973
H125 -4.866514 -6.927175 7.674277
H126 -4.901100 -6.590916 6.050198
H127 10.061813 6.704552 0.114263
H128 9.876726 8.130441 -0.260440
