192
1 12.414492 0.000000 0.000000 0.000000 12.414492 0.000000 0.000000 0.000000 12.414492
O1 -4.625078 -11.370043 8.153151
O2 8.058283 -0.728544 12.003571
O3 5.799399 -8.727353 10.401703
O4 -8.843234 -8.836849 4.138685
O5 -5.638738 -4.822613 12.879823
O6 6.271751 -4.102130 2.922355
O7 10.881652 4.011687 -5.905852
O8 -0.473824 1.451148 5.355676
O9 -2.902278 -1.968619 2.093304
O10 -12.472610 5.017945 2.477089
O11 0.070350 -0.017908 3.245099
O12 6.033306 9.948911 -1.001885
O13 -8.494705 5.830175 -2.902492
O14 -10.294703 11.253474 -3.366842
O15 4.136640 6.445521 -12.058205
O16 9.373204 -4.595717 2.282049
O17 -1.723218 4.826228 -1.341056
O18 16.487145 1.584583 -10.011006
O19 -0.166276 -10.636380 0.827801
O20 5.500824 11.880619 15.722904
O21 0.458153 11.182016 6.940636
O22 4.653581 13.574153 -6.046299
O23 1.334264 -4.722970 -6.506424
O24 10.716951 -2.733175 -5.423347
O25 14.321535 -3.885895 3.106298
O26 2.697641 2.629875 8.040115
O27 -4.548008 0.644458 2.601958
O28 -3.088534 -6.272507 -7.787329
O29 4.634156 -2.772524 -4.422843
O30 -3.059257 -0.996404 -2.838015
O31 1.747899 -13.686288 -0.788349
O32 -9.532258 1.144173 12.307821
O33 -5.940958 -8.097548 4.173087
O34 -0.875127 10.233465 0.363396
O35 -4.265754 -3.246502 7.593941
O36 6.646975 -5.574507 5.244008
O37 0.153300 3.460688 -3.605864
O38 5.373024 7.196931 7.573821
O39 -0.938466 -12.201734 -1.214084
O40 1.509046 17.628975 -2.229108
O41 16.295911 -2.424075 1.932235
O42 5.573281 -0.381023 -3.330191
O43 5.117630 16.251149 0.967954
O44 -2.284993 -1.368899 4.548900
O45 -3.664247 0.812699 -6.939189
O46 -16.870213 -6.913406 11.311506
O47 -9.446007 -6.954495 -5.836724
O48 -2.422205 3.812339 1.378632
O49 1.801046 -1.703016 4.635485
O50 -8.255351 -1.363678 -19.243266
O51 -13.207169 6.587046 -3.229116
O52 -2.756767 2.142568 -2.676061
O53 7.809430 -5.889656 8.868552
O54 -1.055794 -3.356900 -14.366711
O55 3.391934 -3.533344 -1.015078
O56 -4.030694 4.409032 7.248870
O57 7.478550 14.609986 0.534479
O58 0.957853 3.789263 -7.807825
O59 -8.970317 -6.028248 -9.421677
O60 1.719180 3.800759 -12.075119
O61 -0.262781 7.724635 14.269502
O62 4.120122 -10.713509 -2.347975
O63 -3.495817 -9.015211 4.124405
O64 -1.163138 -5.729205 -5.940141
H1 -4.499904 -11.352623 7.142511
H2 -5.410453 -11.907120 8.338517
H3 8.564247 -0.875245 11.176591
H4 7.943768 0.252116 12.126635
H5 5.529126 -7.905994 10.028247
H6 6.399124 -8.524198 11.162286
H7 -7.921475 -8.567632 4.233344
H8 -8.845173 -9.746214 3.841057
H9 -5.247095 -5.658811 12.633258
H10 -5.777953 -4.748881 13.845184
H11 5.379121 -3.759919 2.755511
H12 6.270535 -4.657737 3.708332
H13 10.974969 4.998874 -6.135260
H14 11.664637 3.718552 -5.303604
H15 -0.915266 2.166340 5.894902
H16 -0.312414 0.758695 6.011619
H17 -3.646913 -1.284399 2.063152
H18 -3.284498 -2.849405 2.356792
H19 -11.685317 4.901388 1.943274
H20 -12.244995 4.460593 3.265672
H21 0.021042 0.657847 3.917977
H22 0.878930 -0.575285 3.423693
H23 6.458046 9.123725 -0.562238
H24 6.698849 10.697197 -0.847816
H25 -8.521462 6.452997 -2.119218
H26 -8.210518 6.341826 -3.724691
H27 -9.951826 12.100329 -3.602144
H28 -10.969837 11.068902 -4.176920
H29 5.002295 6.902770 -11.916766
H30 3.579313 7.084999 -12.547733
H31 9.017669 -4.888196 1.408498
H32 9.171428 -5.252565 2.977956
H33 -1.391888 5.375961 -2.085403
H34 -1.323845 5.260820 -0.543830
H35 16.981427 0.785915 -9.681559
H36 16.024425 1.362181 -10.908535
H37 -0.527937 -11.325129 0.153989
H38 0.069596 -11.159173 1.695182
H39 6.408628 12.171346 15.458538
H40 5.167364 11.205632 15.146149
H41 0.762425 10.827130 6.032183
H42 -0.337337 10.579382 7.124612
H43 4.017418 14.258911 -5.774834
H44 4.881189 13.239350 -5.150568
H45 1.971995 -5.437367 -6.419037
H46 1.653416 -4.273881 -7.235311
H47 10.883079 -3.687776 -5.652341
H48 10.531329 -2.286152 -6.278146
H49 14.856713 -4.683281 2.997267
H50 13.515799 -4.266100 2.594373
H51 3.005510 2.181678 8.845732
H52 2.950764 3.551320 8.237960
H53 -4.466528 1.179215 3.380022
H54 -4.820088 1.242059 1.888809
H55 -4.008681 -6.233540 -7.355529
H56 -2.567832 -5.840743 -7.120456
H57 4.591034 -2.372060 -5.331979
H58 3.716427 -2.603076 -4.097301
H59 -3.469156 -0.305741 -3.440434
H60 -3.374396 -1.831593 -3.141275
H61 1.665813 -13.588811 -1.752076
H62 0.774457 -13.873093 -0.437908
H63 -10.326592 1.663810 12.319691
H64 -9.810227 0.149914 12.214795
H65 -6.224063 -8.194456 3.271678
H66 -5.000146 -8.579338 4.056230
H67 -0.533464 9.523755 0.928865
H68 -1.741812 10.245141 0.864826
H69 -4.944149 -3.292359 6.910730
H70 -3.372741 -2.970571 7.168998
H71 6.320991 -6.513432 4.907168
H72 6.223960 -5.381751 6.133116
H73 -0.339089 2.848819 -3.036891
H74 1.022300 2.949009 -3.729557
H75 6.038798 7.095553 8.297107
H76 5.091526 8.174482 7.736740
H77 -1.085185 -13.125749 -1.038884
H78 -1.730668 -11.868406 -1.768895
H79 0.942145 16.953806 -2.719370
H80 2.333262 17.810260 -2.802314
H81 15.451028 -2.684915 2.236585
H82 16.410936 -2.813830 1.062037
H83 5.703166 -1.222196 -2.850890
H84 4.828070 0.210078 -2.976537
H85 4.720830 16.950795 0.400094
H86 4.385683 15.694248 1.248759
H87 -2.517120 -1.817253 3.662777
H88 -1.330690 -1.037389 4.366213
H89 -3.097128 0.092544 -7.249246
H90 -3.391763 1.660218 -7.348871
H91 -17.042954 -6.501183 10.367667
H92 -15.879510 -7.063104 11.247167
H93 -9.294497 -7.732098 -6.435011
H94 -8.567851 -6.516188 -5.623947
H95 -1.588603 4.181020 1.785604
H96 -2.030659 3.117245 0.864428
H97 2.568774 -1.452488 5.213224
H98 1.980962 -2.532573 4.150872
H99 -8.177710 -0.317867 -19.025008
H100 -7.742021 -1.354345 -20.048522
H101 -13.318769 7.466918 -2.778158
H102 -12.318322 6.253398 -3.040448
H103 -3.461831 1.753270 -3.203087
H104 -3.045510 2.983777 -2.293788
H105 8.183225 -4.984783 8.599837
H106 7.989554 -6.670471 8.197047
H107 -1.176542 -3.141291 -13.437774
H108 -0.168016 -3.086225 -14.554155
H109 2.635928 -2.886771 -1.023700
H110 4.166286 -2.881344 -1.138733
H111 -3.066537 4.205357 7.048789
H112 -4.374130 3.567185 7.643419
H113 8.221580 15.152485 0.162105
H114 6.733869 15.203603 0.597960
H115 0.813931 2.945950 -7.439429
H116 1.929548 3.849945 -8.064917
H117 -8.733251 -6.183362 -10.437491
H118 -9.152816 -6.970742 -9.160409
H119 1.655377 4.261146 -12.906314
H120 0.969822 3.181053 -11.993031
H121 -0.101445 6.745036 14.513543
H122 -1.194865 7.730182 14.659677
H123 4.794880 -9.975847 -2.126514
H124 3.632967 -10.707910 -1.437045
H125 -3.273885 -9.228909 3.196315
H126 -3.319730 -7.998037 4.394475
H127 -1.108595 -5.787180 -4.985269
H128 -0.254625 -5.539756 -6.312394
