192
1 12.414492 0.000000 0.000000 0.000000 12.414492 0.000000 0.000000 0.000000 12.414492
O1 -1.132018 -0.772323 -7.808274
O2 2.451218 4.709614 6.361551
O3 -12.606350 3.361992 1.822400
O4 -7.238131 -3.415190 0.741337
O5 4.024585 6.092409 -2.403828
O6 -4.268215 4.978090 5.742359
O7 1.368635 -1.726488 -7.730589
O8 -6.078956 5.774980 -3.572315
O9 7.480670 -8.760166 -1.919803
O10 6.863276 -5.927876 3.742566
O11 6.558714 -0.291735 3.923960
O12 1.913023 -8.218078 3.381972
O13 -12.032973 -6.231363 -5.204434
O14 -2.270966 10.511044 1.267009
O15 3.481399 2.722601 0.511486
O16 -2.507180 3.186680 -3.071063
O17 -0.273496 3.623306 -1.203727
O18 5.689799 1.078919 -0.161025
O19 2.824358 1.675904 3.839768
O20 -4.496767 2.446933 0.470127
O21 5.252040 9.633109 -14.167106
O22 6.516796 2.760990 -5.932774
O23 -3.213911 7.207419 -1.916165
O24 -8.775760 -0.476799 -5.398618
O25 4.054139 -7.021726 2.042517
O26 -12.891975 -4.089262 -1.988135
O27 -2.799285 -3.445554 -7.456309
O28 -1.841422 -15.094778 -4.954811
O29 -6.303198 7.897445 -5.009715
O30 -7.692831 2.706070 -3.277667
O31 3.483141 -4.276869 2.884234
O32 -1.661421 5.871321 -10.605704
O33 -2.227796 -6.787709 -4.607019
O34 6.375500 -1.046731 6.330674
O35 2.055989 -10.500949 6.506625
O36 -1.365517 -0.297754 -3.874802
O37 13.562055 -0.186572 -1.757431
O38 1.257392 8.338448 1.434416
O39 0.290342 -2.161043 0.016880
O40 2.317910 3.792498 -3.019021
O41 1.558015 1.047111 0.556527
O42 -1.032868 -4.219012 -9.243285
O43 -0.435446 6.151428 12.031363
O44 2.212629 -0.537781 2.423017
O45 4.607666 -5.947829 5.058160
O46 -5.773466 3.926545 2.469732
O47 7.963484 -3.291995 8.976146
O48 14.143716 -4.366605 -7.376298
O49 -5.215863 -0.734890 -2.580778
O50 -6.977690 2.398193 4.225053
O51 -5.222093 9.105685 4.368395
O52 4.814600 -1.048611 1.837787
O53 -4.348496 5.729298 0.688543
O54 -0.735867 1.467902 -6.122360
O55 9.288122 -0.311953 15.423644
O56 -2.021587 -11.016773 13.130462
O57 -2.058463 3.784958 4.837249
O58 -4.382995 1.311664 -4.301153
O59 -2.757941 11.739254 -1.139429
O60 -4.803178 -3.708277 1.590827
O61 3.430081 -3.499444 7.092966
O62 2.600958 -5.956113 0.025917
O63 1.656320 -4.739223 -3.520455
O64 3.945773 -0.628555 -2.510080
H1 -1.922434 -0.524404 -8.346631
H2 -1.612376 -1.390339 -7.238675
H3 2.075904 4.520625 5.462171
H4 2.330698 3.789240 6.854788
H5 -13.276984 4.068047 1.866412
H6 -13.258047 2.598608 1.518165
H7 -7.953166 -3.647595 1.324738
H8 -6.331911 -3.510986 1.266673
H9 3.489501 5.228281 -2.484293
H10 3.761544 6.433955 -1.528551
H11 -3.545106 4.396502 5.342660
H12 -4.620544 5.689323 5.128125
H13 1.659355 -1.136885 -8.494971
H14 0.416607 -1.567171 -7.762370
H15 -6.184465 5.145552 -4.321679
H16 -6.893630 5.742331 -3.030705
H17 7.156173 -8.010270 -2.398187
H18 8.313793 -8.959670 -2.473609
H19 7.045284 -4.893013 4.041696
H20 5.907226 -6.226314 3.975935
H21 6.111405 -0.893121 3.278752
H22 6.405508 -0.758331 4.773116
H23 2.336427 -9.083807 3.550913
H24 1.045055 -8.346787 2.937146
H25 -12.956894 -6.497281 -5.042495
H26 -11.372847 -6.986065 -5.400087
H27 -2.549668 9.606557 1.324664
H28 -2.745792 10.943105 0.504122
H29 2.782582 1.957830 0.469559
H30 2.993599 3.339053 -0.065441
H31 -2.499800 4.091381 -3.503896
H32 -2.692530 2.668800 -3.911182
H33 -0.980022 3.319990 -1.805365
H34 -0.603454 3.628454 -0.289777
H35 5.514975 0.870989 -1.107989
H36 4.899953 1.520783 0.129455
H37 2.560551 0.828718 3.263427
H38 3.800362 1.777064 3.815507
H39 -4.486400 3.018525 -0.375282
H40 -5.255135 1.833153 0.308730
H41 5.631510 8.954549 -14.831262
H42 5.261603 9.198205 -13.236072
H43 7.114711 3.576198 -5.972183
H44 6.129832 2.763475 -6.855209
H45 -3.960958 7.675165 -2.374086
H46 -2.452274 7.851146 -1.864508
H47 -9.467358 0.198541 -5.550784
H48 -9.144058 -1.404863 -5.661537
H49 3.426253 -7.648279 2.554203
H50 4.715351 -7.676361 1.779434
H51 -12.005952 -4.397325 -2.410858
H52 -12.604832 -3.266766 -1.461810
H53 -2.148247 -3.668365 -8.225816
H54 -2.429866 -3.161167 -6.554349
H55 -1.397717 -15.815561 -4.419058
H56 -1.542770 -14.273345 -4.507861
H57 -7.283174 8.336133 -5.026450
H58 -6.295428 7.151586 -4.394244
H59 -6.895432 2.721192 -2.694160
H60 -7.246664 2.624448 -4.118484
H61 3.810700 -5.271422 2.944503
H62 2.935849 -4.261520 3.759611
H63 -2.569847 5.692025 -10.799738
H64 -1.352011 6.040411 -11.603303
H65 -2.989592 -6.959290 -5.195641
H66 -2.484287 -6.112504 -3.944119
H67 5.494833 -0.717895 6.631620
H68 7.043076 -0.416926 6.695445
H69 1.078810 -10.602617 6.387199
H70 2.422712 -10.567495 5.569715
H71 -0.440540 -0.428670 -3.426351
H72 -1.962940 -0.183208 -3.056982
H73 14.529805 -0.431283 -2.096073
H74 13.256002 -0.987443 -1.141435
H75 1.253369 7.596342 0.769832
H76 2.209981 8.273685 1.771883
H77 -0.514600 -2.219646 0.620402
H78 1.016769 -2.725853 0.468527
H79 1.515901 3.824629 -2.421857
H80 3.009657 3.277803 -2.665178
H81 0.858912 1.455871 1.055711
H82 1.150423 0.654152 -0.260781
H83 -1.266956 -5.107414 -9.799919
H84 -0.185203 -3.906517 -9.709714
H85 -0.532934 6.986017 11.476667
H86 -0.556197 5.318085 11.552871
H87 1.883626 -0.107631 1.614452
H88 3.162568 -0.854685 2.255624
H89 3.988092 -6.502039 5.651586
H90 5.156993 -5.508357 5.725846
H91 -5.642669 4.693859 3.052101
H92 -5.094816 3.624845 1.729875
H93 7.476905 -3.665011 8.217050
H94 8.733536 -2.990770 8.464606
H95 13.402409 -4.963120 -7.245706
H96 13.827038 -3.415853 -7.575258
H97 -4.982165 -1.676202 -2.816695
H98 -6.209252 -0.773469 -2.532072
H99 -6.882470 2.982421 3.421574
H100 -6.557886 1.515186 4.028484
H101 -4.201749 9.200606 4.750164
H102 -5.885343 9.436676 5.122346
H103 4.951265 -1.899402 1.261628
H104 5.048056 -0.350425 1.174767
H105 -5.172988 5.416624 0.230481
H106 -3.770202 6.095362 -0.038688
H107 -1.173949 1.290833 -5.246255
H108 -0.954095 0.704691 -6.695752
H109 9.429399 -1.120937 14.854958
H110 8.385439 -0.531730 15.822809
H111 -2.846783 -10.489273 12.904112
H112 -2.307873 -11.523531 13.925350
H113 -1.335102 4.407181 4.890699
H114 -1.660464 3.092822 5.424895
H115 -5.160807 1.801052 -4.739364
H116 -4.824171 0.661113 -3.667006
H117 -3.714429 11.773302 -1.392251
H118 -2.533627 12.628650 -0.730893
H119 -4.872203 -3.760248 2.558572
H120 -4.713110 -4.648332 1.341714
H121 2.940887 -3.892862 6.303773
H122 2.958155 -4.078327 7.721254
H123 3.177301 -6.408905 0.714810
H124 1.826408 -6.559245 -0.123148
H125 2.441121 -5.299027 -3.185127
H126 1.040406 -5.382632 -4.199501
H127 4.242221 -1.528749 -2.240493
H128 3.974853 -0.539226 -3.495873
