192
1 12.414492 0.000000 0.000000 0.000000 12.414492 0.000000 0.000000 0.000000 12.414492
O1 -8.538340 -5.302872 -2.294360
O2 3.905724 0.592397 -2.278797
O3 1.782879 2.833326 -12.050103
O4 -0.614674 14.373098 0.696944
O5 -7.951534 2.261231 1.283022
O6 -13.231511 6.986190 4.183540
O7 -2.469756 3.924844 -5.823893
O8 4.562656 -6.534000 -10.591155
O9 2.839457 -6.586018 12.214349
O10 0.292845 3.364410 2.863721
O11 3.655297 -2.590120 -1.400779
O12 2.185923 12.357506 20.533776
O13 -4.813985 -5.681509 -7.179636
O14 10.943104 6.641562 0.222166
O15 7.505916 8.865999 -2.825354
O16 6.985221 -8.329942 10.184211
O17 -6.588978 3.242197 -8.991770
O18 4.552448 0.495099 5.157001
O19 0.928460 9.484635 9.909562
O20 18.040293 -2.198720 0.800997
O21 -8.262036 -3.850506 2.336355
O22 5.709755 -10.026872 8.104639
O23 0.350068 11.792637 -11.032609
O24 -1.402878 -0.874282 -6.298777
O25 -3.745298 -2.246815 -0.068143
O26 8.028055 0.015021 -1.267517
O27 -0.539566 -0.828239 -3.652258
O28 3.992943 -0.432826 2.267906
O29 -3.185654 2.664258 1.831865
O30 -5.342565 -7.033205 2.196885
O31 -14.942490 0.717258 3.787888
O32 14.798482 -0.205120 0.054591
O33 -0.853843 -3.663224 6.429806
O34 0.388561 -0.479375 3.990204
O35 -3.949491 7.183331 0.806605
O36 -17.354260 15.233059 -6.921956
O37 -3.456089 -1.796560 2.485505
O38 0.650099 -6.475038 14.289130
O39 13.202289 3.599130 6.238139
O40 -10.611481 -2.400514 -5.979989
O41 4.211859 9.158837 6.627044
O42 4.023294 6.669762 7.602441
O43 7.165885 -10.112697 0.066140
O44 -1.901866 -11.346805 -2.025872
O45 0.677825 2.798005 -2.172004
O46 1.566442 6.149631 -5.844106
O47 5.340704 -14.590669 -3.468968
O48 9.016380 -4.125832 3.427184
O49 -5.549530 6.777588 -13.852131
O50 -3.375267 -4.994430 -5.061115
O51 7.134062 -1.284337 -8.019975
O52 2.436177 -2.168448 3.786988
O53 -3.254591 -7.236277 -3.450207
O54 5.880288 -3.755984 -7.886406
O55 -6.509430 5.067041 -5.654643
O56 2.097842 1.698960 4.805600
O57 -4.026893 0.154963 6.314970
O58 2.599478 -9.552013 -16.621059
O59 3.827232 4.996301 -8.112429
O60 0.174497 6.979818 -3.133578
O61 -2.036046 -7.914226 3.953035
O62 -0.691696 -15.543393 0.083222
O63 -5.307224 0.276309 8.611954
O64 -1.018030 -7.361695 -2.015042
H1 -7.539429 -5.428727 -2.146286
H2 -8.658674 -5.469911 -3.270890
H3 4.847842 0.151120 -2.229642
H4 3.592706 0.602966 -1.373294
H5 1.767107 2.876008 -13.022442
H6 2.770900 2.785128 -11.910735
H7 -0.701493 13.367117 0.738264
H8 0.411247 14.564511 0.565387
H9 -7.417981 2.666041 2.044852
H10 -8.128356 1.367514 1.613830
H11 -12.516972 7.161558 3.546270
H12 -13.505940 6.000812 4.056566
H13 -2.733942 4.184254 -4.921863
H14 -1.516799 3.585991 -5.739897
H15 5.499190 -6.774907 -10.617808
H16 4.136664 -6.898636 -11.411714
H17 3.169681 -6.192526 11.357572
H18 2.655586 -7.484680 11.959016
H19 -0.064807 2.785555 2.140945
H20 0.917354 2.765723 3.213556
H21 3.529191 -3.554112 -1.391984
H22 4.479513 -2.451399 -2.112057
H23 2.728479 12.174422 21.314461
H24 1.205894 12.247638 20.760150
H25 -4.252840 -5.608659 -7.916614
H26 -5.518847 -4.998702 -7.418532
H27 10.941196 5.941103 -0.498534
H28 11.555132 6.139403 0.863667
H29 8.035990 8.632009 -3.675754
H30 7.576299 8.000529 -2.262720
H31 6.500230 -8.912263 9.542513
H32 7.299763 -8.987716 10.843992
H33 -7.313640 3.663666 -8.582493
H34 -5.966030 3.097482 -8.277959
H35 5.005330 1.171297 4.610660
H36 5.028723 -0.317899 4.984550
H37 1.821303 9.717300 10.200832
H38 0.641596 10.311930 9.498783
H39 17.736577 -2.140561 -0.144157
H40 19.018859 -2.203639 0.747424
H41 -7.761195 -3.260060 1.744065
H42 -8.171454 -4.843391 1.932922
H43 4.752116 -9.920185 8.159042
H44 5.873699 -9.300861 7.443714
H45 -0.009498 10.954514 -11.490696
H46 0.020605 11.879953 -10.090274
H47 -1.440811 -1.839919 -6.325172
H48 -2.428135 -0.545347 -6.286810
H49 -4.140663 -1.502179 -0.743066
H50 -3.172349 -2.883251 -0.591476
H51 7.766812 0.131128 -2.198082
H52 7.898659 0.850098 -0.813838
H53 -0.912172 -0.011547 -3.176417
H54 -1.041797 -0.902959 -4.560777
H55 3.367076 -0.131310 1.486454
H56 4.517186 -1.097031 1.778241
H57 -2.386424 2.666347 1.222981
H58 -3.013752 3.393651 2.523467
H59 -4.458591 -6.650534 1.962083
H60 -5.224535 -7.874790 2.702822
H61 -15.276763 1.167667 3.004877
H62 -15.861664 0.511118 4.152446
H63 14.059682 -0.295899 0.759263
H64 15.027593 -1.141640 -0.278761
H65 -0.548834 -4.262290 5.692785
H66 -0.106070 -3.933302 7.034573
H67 -0.097741 -0.930462 4.687584
H68 1.046897 -1.227131 3.771505
H69 -4.022066 7.797057 1.596092
H70 -2.949776 7.085240 0.648443
H71 -17.259931 14.307318 -6.596682
H72 -16.410003 15.402976 -6.666252
H73 -2.747741 -1.338296 2.988400
H74 -3.372874 -1.795206 1.473722
H75 0.539086 -7.443347 14.649595
H76 1.499546 -6.405751 13.863750
H77 13.836104 3.179350 6.817008
H78 13.416754 3.027971 5.431987
H79 -10.706865 -1.497654 -5.407136
H80 -10.746113 -2.143563 -6.934399
H81 4.095370 8.199971 6.829290
H82 3.253568 9.572912 6.548882
H83 4.654457 5.943735 7.322346
H84 3.121622 6.427479 7.157796
H85 7.735051 -10.091012 0.872551
H86 6.227505 -10.169808 0.384985
H87 -2.665956 -11.888692 -1.656272
H88 -1.600129 -10.980651 -1.172332
H89 0.031967 2.054964 -2.280894
H90 0.064389 3.530992 -2.002311
H91 1.364841 5.140012 -5.889136
H92 1.823700 6.395318 -6.760482
H93 6.247992 -15.077485 -3.441344
H94 4.770427 -15.031944 -4.266452
H95 9.235686 -3.233831 3.002926
H96 9.812566 -4.467432 3.821718
H97 -4.966697 6.769476 -13.056914
H98 -5.549363 5.801713 -14.089541
H99 -2.494347 -4.628934 -5.268649
H100 -3.784606 -5.373943 -5.832721
H101 6.877268 -2.238617 -7.954973
H102 7.857734 -1.315192 -8.698847
H103 3.178939 -1.634438 3.437698
H104 2.582001 -2.937612 3.217162
H105 -4.069307 -7.670254 -3.125650
H106 -3.214806 -6.321919 -3.998929
H107 5.475758 -3.741192 -8.830217
H108 5.099112 -3.489046 -7.319895
H109 -7.131689 4.847354 -6.324016
H110 -5.786788 5.589100 -6.151944
H111 1.426325 0.981033 4.608952
H112 2.794356 1.200164 5.264252
H113 -4.523190 -0.471067 5.696211
H114 -4.454586 0.070621 7.209744
H115 1.910405 -9.334050 -15.961700
H116 2.724298 -10.540960 -16.570379
H117 4.084229 5.386125 -8.995347
H118 2.972752 4.607388 -8.189044
H119 0.793714 6.709685 -3.866205
H120 0.498993 7.869194 -2.826906
H121 -2.408321 -8.068809 4.964514
H122 -1.460982 -8.732301 3.855954
H123 -0.245834 -15.416373 -0.731961
H124 -0.806453 -16.598138 0.192912
H125 -5.888413 1.128282 8.655359
H126 -5.915819 -0.488289 8.461540
H127 -0.563596 -6.520232 -2.343050
H128 -1.804906 -7.432778 -2.708212
