192
1 12.414492 0.000000 0.000000 0.000000 12.414492 0.000000 0.000000 0.000000 12.414492
O1 -1.929266 2.994851 -16.380037
O2 -0.407226 -10.001513 0.445018
O3 -5.112708 4.466753 -6.416819
O4 1.868703 11.561456 -2.654189
O5 -3.110131 1.966585 -12.795633
O6 -4.883357 3.789436 0.817088
O7 -2.472853 -3.489195 11.872116
O8 -2.683958 10.097944 -3.334225
O9 9.557814 -9.032178 5.817320
O10 -11.722470 3.557384 2.653497
O11 5.659247 -2.409939 4.250789
O12 -1.002379 -0.714193 -5.484184
O13 -0.787711 6.900012 6.322424
O14 -19.114666 -0.693071 -2.528445
O15 2.774805 -0.052441 -7.965378
O16 5.929703 -4.778592 -10.424837
O17 5.765656 2.743181 -2.987247
O18 -3.071986 -3.884458 6.743117
O19 0.125384 -3.744818 1.849487
O20 2.980683 -0.422977 0.159402
O21 11.109249 5.044949 4.386428
O22 1.631562 -6.245974 -10.140655
O23 3.346720 -3.328221 -3.374919
O24 2.018727 -2.548058 3.302258
O25 -13.517234 -7.361591 0.605511
O26 2.417572 4.856049 -4.870655
O27 -5.438272 -7.492984 -1.739791
O28 4.740593 0.503387 2.563649
O29 -6.821935 7.387676 -2.396679
O30 -1.173267 -15.756243 -8.161433
O31 -0.748745 -0.354430 -8.822432
O32 4.681344 3.537565 -5.558640
O33 -8.005774 0.820009 6.653040
O34 -10.913901 3.375971 11.259699
O35 2.584764 -11.070402 8.721914
O36 -6.339065 5.341026 3.915360
O37 11.459595 6.779423 -1.438028
O38 0.519178 -9.510145 7.176163
O39 8.966414 0.361230 16.158966
O40 -15.395733 5.558236 -3.130602
O41 1.338832 -6.499589 -14.989068
O42 6.570679 -2.683478 -1.079910
O43 -8.676130 4.289238 -0.369870
O44 -3.913898 1.801712 -3.057630
O45 0.632272 1.687416 4.858926
O46 -7.009993 -11.910755 12.097310
O47 8.388624 8.423547 1.636341
O48 -5.505347 -5.282898 7.126580
O49 14.259588 -1.855950 -5.649273
O50 -8.415375 -5.680567 -11.907187
O51 2.069557 -4.084106 -1.137547
O52 9.191614 -6.888338 2.435874
O53 -11.924793 8.802603 8.667239
O54 4.969053 3.252599 -10.226819
O55 -4.628038 -0.522568 8.240892
O56 2.196977 6.711713 5.307992
O57 4.425572 -2.318802 -10.571131
O58 -5.585234 -0.141187 -6.665225
O59 -5.252612 -1.214444 0.980741
O60 9.663309 -0.363373 -11.420744
O61 -0.339409 10.728429 11.571969
O62 0.488872 12.200544 1.335730
O63 4.829611 -4.955100 5.671114
O64 8.571643 -2.838825 4.107557
H1 -2.061220 3.840724 -15.814793
H2 -2.517498 2.287284 -16.000255
H3 0.270164 -9.627745 -0.286295
H4 -1.230031 -10.352028 0.032307
H5 -5.084614 5.412143 -6.053365
H6 -4.186475 4.024797 -6.263089
H7 2.173110 10.773606 -3.180960
H8 1.705386 12.252939 -3.334835
H9 -3.784059 2.551591 -12.418663
H10 -3.192700 1.209186 -12.209484
H11 -4.158658 4.304551 1.295414
H12 -5.043587 4.454625 0.046479
H13 -2.205379 -4.210918 11.319897
H14 -1.754588 -2.843179 11.761732
H15 -2.973184 9.708719 -2.481878
H16 -2.823977 9.338539 -3.951157
H17 9.807325 -9.272549 6.745750
H18 9.728044 -9.827426 5.273480
H19 -12.149825 3.410570 1.782571
H20 -11.287115 4.422578 2.511462
H21 5.319635 -2.426312 3.335216
H22 5.894879 -1.537274 4.763642
H23 -1.020754 -1.053455 -4.560541
H24 -1.742319 -1.197914 -5.877520
H25 -0.801050 6.233205 5.507362
H26 0.059878 7.335676 6.219133
H27 -19.245757 -0.063901 -1.740686
H28 -19.880337 -0.792348 -3.082930
H29 2.355721 -0.758634 -8.384246
H30 3.437912 0.124109 -8.684824
H31 5.877724 -5.134015 -9.544271
H32 6.889526 -4.438411 -10.566058
H33 6.662428 2.250458 -2.840753
H34 5.667921 3.225983 -3.849449
H35 -3.973582 -4.422596 6.713132
H36 -2.422989 -4.589199 6.543630
H37 -0.439737 -3.510957 2.632234
H38 -0.104552 -3.205788 1.100053
H39 3.427168 -1.264145 0.449080
H40 2.449961 -0.609160 -0.751682
H41 10.672896 4.348433 5.036969
H42 11.628037 4.490605 3.758498
H43 2.476152 -6.289450 -10.750010
H44 1.232649 -5.454436 -10.505310
H45 3.040136 -3.593100 -2.519302
H46 2.731606 -3.871970 -3.953824
H47 1.417438 -3.123470 2.766432
H48 1.959129 -2.879091 4.245061
H49 -13.619844 -8.328570 0.568502
H50 -14.385481 -6.980395 0.920123
H51 1.673110 4.141924 -5.026935
H52 3.216495 4.363576 -5.201024
H53 -4.527448 -7.319729 -2.198809
H54 -5.799205 -8.372638 -2.184744
H55 5.496331 -0.136251 2.424199
H56 5.077374 1.329595 2.913394
H57 -7.710278 7.509577 -2.815077
H58 -6.750484 6.515588 -1.968978
H59 -1.869757 -15.074895 -8.193966
H60 -1.518223 -16.378274 -7.440478
H61 -0.355120 0.474131 -8.384635
H62 -0.103080 -0.712638 -9.475402
H63 5.523388 3.717407 -6.051673
H64 4.549539 2.519202 -5.629725
H65 -8.700375 0.585700 5.979261
H66 -7.114232 0.407546 6.443673
H67 -10.567402 2.787260 10.580872
H68 -10.139915 3.792201 11.726697
H69 2.022018 -10.341143 8.287443
H70 3.457499 -11.005209 8.268399
H71 -6.955962 5.773578 4.601480
H72 -5.698750 4.835599 4.536222
H73 11.368762 6.298731 -0.546125
H74 12.189930 6.279600 -1.856682
H75 -0.341070 -9.381780 7.663084
H76 0.302736 -10.043295 6.379260
H77 8.671781 0.361284 15.231594
H78 9.886039 0.045868 16.166349
H79 -15.828864 6.102120 -3.821343
H80 -14.749703 6.212381 -2.572579
H81 1.361573 -7.389827 -14.551670
H82 1.882936 -6.718256 -15.767554
H83 6.231840 -3.539090 -1.358230
H84 6.275579 -1.996873 -1.795188
H85 -8.444657 5.270397 -0.094586
H86 -8.319561 3.885850 0.435980
H87 -3.909486 1.719249 -2.053787
H88 -4.229777 0.899223 -3.460809
H89 1.445697 1.225249 4.541113
H90 0.673268 2.455430 4.249131
H91 -7.951882 -12.123895 12.291380
H92 -7.107882 -10.951359 11.998157
H93 8.874736 8.638878 0.811939
H94 8.641502 9.047770 2.414072
H95 -5.845993 -5.038973 8.016398
H96 -6.328140 -5.029080 6.632172
H97 15.098785 -1.548869 -6.071592
H98 13.622732 -1.247208 -5.997671
H99 -7.570970 -5.502570 -11.478220
H100 -8.673701 -4.978655 -12.520389
H101 1.348698 -3.427175 -1.108777
H102 1.701756 -4.914101 -1.557851
H103 9.783598 -6.802214 3.215598
H104 8.845502 -6.007548 2.233843
H105 -12.293012 8.063876 8.201499
H106 -11.827648 9.492342 7.976984
H107 5.171760 4.044953 -9.650888
H108 5.732237 3.188882 -10.876995
H109 -3.713118 -1.016515 8.489201
H110 -5.278823 -0.606802 8.983312
H111 2.031851 6.415859 4.386601
H112 2.055038 5.980251 5.948600
H113 4.925094 -3.199467 -10.711177
H114 3.690554 -2.450572 -9.962248
H115 -4.870320 -0.094213 -7.361905
H116 -5.054575 -0.193208 -5.808436
H117 -5.698367 -0.508543 0.520031
H118 -5.423313 -1.951440 0.275444
H119 10.286298 -0.226625 -10.734701
H120 8.852086 -0.721150 -11.103573
H121 0.154006 11.167806 10.868694
H122 -0.195072 11.282954 12.347006
H123 1.441335 12.174032 1.079292
H124 0.219488 13.080649 0.951193
H125 3.812410 -5.169982 5.716729
H126 4.983587 -4.108615 5.170335
H127 7.597292 -2.838881 3.974230
H128 8.777329 -3.726688 4.509133
