192
1 12.414492 0.000000 0.000000 0.000000 12.414492 0.000000 0.000000 0.000000 12.414492
O1 -6.221740 0.626679 -4.529165
O2 -6.243214 -1.317741 -1.443065
O3 -0.943540 8.316009 6.048457
O4 6.996481 10.063161 1.684621
O5 5.607755 6.096757 -2.357673
O6 -1.957181 11.952191 -3.338013
O7 -8.744688 7.499357 -10.797223
O8 4.696925 7.745401 -4.577631
O9 4.612520 -1.684090 6.138156
O10 8.340490 -4.725049 7.527971
O11 -2.390419 -6.340302 6.111958
O12 6.105917 3.767079 -5.079790
O13 -0.448622 -12.591946 0.529718
O14 2.063080 -14.434694 2.424142
O15 -1.578211 -11.876079 4.037701
O16 8.385164 -0.690961 3.342691
O17 1.297905 -0.300606 5.786485
O18 3.532970 3.847207 0.411743
O19 -2.782310 -2.369589 7.163493
O20 -9.241889 1.804780 -9.908354
O21 1.400103 4.840259 -7.183823
O22 2.386392 10.381846 -2.652163
O23 1.126209 -6.668915 2.518098
O24 -2.112976 -3.208441 2.261429
O25 1.020536 -2.781050 7.510454
O26 15.995906 1.193780 6.971678
O27 0.446778 -8.659165 9.590420
O28 -4.374805 -3.099272 -0.835355
O29 -3.756443 1.799575 7.106828
O30 -13.109961 3.933084 -5.492797
O31 -5.338130 3.847956 -9.150480
O32 4.813210 -2.499580 -3.432590
O33 0.286931 -3.953121 3.503023
O34 -7.711629 -3.130064 3.484188
O35 0.772674 0.285436 10.472237
O36 -3.012131 6.765038 1.921105
O37 -4.130307 2.735657 -0.196005
O38 2.074075 8.930815 -0.281361
O39 2.288699 -4.802715 -5.533671
O40 -3.101983 -7.510329 3.822660
O41 -2.068526 -1.912670 -0.741144
O42 -9.542474 1.696533 9.550048
O43 -0.979536 5.895771 0.300860
O44 5.827146 5.621281 1.318863
O45 -11.289779 0.326311 2.861301
O46 5.829668 7.574492 -6.934952
O47 2.861531 5.297783 -2.039292
O48 12.834149 -5.857992 -3.079011
O49 7.493219 1.438742 -10.385665
O50 8.527600 -8.502244 -3.601151
O51 -9.059446 4.879920 -4.726336
O52 -13.367664 3.194458 -8.640054
O53 -1.050058 2.524619 -11.289201
O54 3.638280 3.086585 4.956073
O55 -4.512040 -5.213426 -2.426495
O56 5.601104 -7.648494 4.957163
O57 7.966582 5.504178 -0.294161
O58 -4.613634 0.693741 -2.176099
O59 4.833800 -12.271323 -11.014121
O60 -13.306721 0.941160 -5.852056
O61 -0.519130 -4.071262 -0.993791
O62 -4.891433 -1.001478 5.730806
O63 -1.598281 3.720965 -1.359888
O64 5.007853 1.976797 -1.261271
H1 -5.999498 1.400373 -5.046469
H2 -7.247570 0.663331 -4.522622
H3 -5.920656 -2.180241 -1.219568
H4 -5.456273 -0.737457 -1.699512
H5 -0.285022 8.613346 6.791661
H6 -1.266130 7.394588 6.368315
H7 7.559866 10.521848 2.344878
H8 6.112950 9.896430 2.163869
H9 6.024098 5.311810 -2.760938
H10 6.459146 6.688245 -2.435524
H11 -2.086626 11.281902 -4.070895
H12 -2.784445 12.339952 -3.295878
H13 -8.460035 8.212643 -10.133172
H14 -9.420062 7.816492 -11.464339
H15 4.928965 6.968253 -3.967049
H16 4.778490 8.596677 -4.032541
H17 4.109520 -0.820186 6.044276
H18 4.488936 -1.916183 7.041585
H19 8.967954 -5.327421 7.020906
H20 8.890193 -3.937761 7.582564
H21 -1.721499 -7.067103 6.259764
H22 -2.840269 -6.532641 5.215639
H23 5.152637 3.755051 -4.912812
H24 6.205537 4.196711 -5.998633
H25 0.062732 -12.702118 -0.275866
H26 0.294786 -12.368478 1.331724
H27 1.386007 -15.032580 2.865886
H28 2.106900 -14.760709 1.500221
H29 -2.281471 -12.288740 3.351662
H30 -0.696793 -11.981516 3.625621
H31 8.045431 0.128249 3.013772
H32 8.103488 -0.821523 4.264936
H33 0.528450 0.206505 6.103119
H34 1.457112 -0.008296 4.859566
H35 3.254675 3.155141 1.084519
H36 2.848894 4.090691 -0.182369
H37 -2.045384 -2.849214 6.603095
H38 -3.448023 -2.029042 6.488964
H39 -8.770829 2.151699 -9.102555
H40 -8.704436 1.011601 -10.267688
H41 1.231208 5.124892 -8.151804
H42 0.491134 4.451580 -6.959664
H43 1.825029 10.146871 -3.421303
H44 1.814220 11.096873 -2.246325
H45 1.858717 -6.052096 2.340470
H46 0.551648 -6.768457 1.752235
H47 -1.272972 -3.183071 2.794679
H48 -2.707872 -2.676871 2.905173
H49 1.591959 -3.649886 7.182536
H50 1.250896 -2.095100 6.834823
H51 16.087484 2.001523 6.324453
H52 15.228662 0.584138 6.696325
H53 0.682504 -7.694801 9.801710
H54 1.256134 -9.136482 9.482542
H55 -3.535653 -2.657360 -1.111175
H56 -4.370324 -2.953927 0.125727
H57 -3.050632 2.117938 6.566452
H58 -3.767434 2.547065 7.881497
H59 -12.540332 3.900562 -4.666502
H60 -13.111009 2.963919 -5.725826
H61 -4.395280 4.154491 -8.897641
H62 -5.602201 4.475552 -9.780923
H63 5.462191 -1.941711 -2.840734
H64 3.848612 -2.415097 -2.989371
H65 0.505107 -4.776407 2.963247
H66 0.139330 -4.236929 4.417644
H67 -8.262540 -2.812835 4.178011
H68 -7.115072 -3.756772 3.976969
H69 1.596598 0.854119 10.212420
H70 0.119472 0.321530 9.757579
H71 -3.609723 6.465759 1.201231
H72 -2.805983 7.754947 1.804391
H73 -3.968093 3.691928 -0.240566
H74 -3.303394 2.314852 0.209585
H75 2.440503 9.342631 -1.120035
H76 1.042529 8.707046 -0.496052
H77 3.272972 -4.927953 -5.160182
H78 2.271169 -5.598417 -6.177102
H79 -2.380950 -8.157862 3.828681
H80 -2.967036 -6.835252 3.018741
H81 -1.572664 -1.658748 0.085142
H82 -2.011850 -1.171526 -1.399250
H83 -9.304585 1.487633 8.621403
H84 -8.712972 1.526554 10.065140
H85 -1.147027 5.230469 -0.417942
H86 -1.870470 5.956310 0.787256
H87 5.403099 4.930458 0.856412
H88 5.220124 6.398314 1.131499
H89 -10.670419 1.149061 2.810135
H90 -10.544443 -0.287035 2.682650
H91 6.623691 7.719743 -6.416935
H92 5.128698 7.863813 -6.293280
H93 2.264806 5.988966 -1.761340
H94 3.753118 5.581182 -1.838415
H95 12.540479 -5.144517 -2.448892
H96 13.276707 -5.433706 -3.834761
H97 7.125789 2.257592 -9.870565
H98 7.852032 1.850145 -11.227443
H99 7.589139 -8.392884 -3.779112
H100 9.001232 -7.780151 -4.052031
H101 -9.820404 4.569046 -5.241607
H102 -9.365545 5.171819 -3.792117
H103 -13.219538 2.942105 -9.602065
H104 -13.716094 2.324764 -8.284141
H105 -0.844443 1.626734 -11.662966
H106 -1.341694 3.048682 -12.082125
H107 4.350033 3.825067 4.942047
H108 2.785529 3.602646 4.867150
H109 -4.592549 -4.317587 -1.906899
H110 -4.294229 -5.049879 -3.511538
H111 5.614341 -6.650394 4.943387
H112 6.259504 -8.011495 4.267010
H113 7.036897 5.465048 0.112141
H114 7.977452 5.924308 -1.174627
H115 -5.260029 0.824810 -3.029262
H116 -4.662784 1.425763 -1.602687
H117 5.787037 -12.014122 -11.126647
H118 4.833463 -13.224173 -11.214266
H119 -13.758053 0.667935 -4.985863
H120 -13.830343 0.648839 -6.680916
H121 -1.144845 -3.361807 -0.897276
H122 -0.927678 -4.840318 -0.482082
H123 -4.550404 -0.285570 6.281767
H124 -5.806599 -1.098826 6.014143
H125 -0.799658 3.514708 -1.964285
H126 -2.433811 3.525541 -1.819716
H127 4.983185 1.340921 -0.495281
H128 4.359689 2.726300 -0.784912
