192
1 12.414492 0.000000 0.000000 0.000000 12.414492 0.000000 0.000000 0.000000 12.414492
O1 -8.720933 -2.194378 -13.023344
O2 -1.575326 7.964266 13.667992
O3 -5.360371 7.668839 -3.513732
O4 -7.652426 -1.485955 4.722842
O5 4.593554 -4.224770 -8.357504
O6 -3.699860 -0.024204 -2.664493
O7 2.617632 0.325108 4.740976
O8 -1.983450 -0.292256 6.857906
O9 7.206387 -12.282586 0.829737
O10 0.309525 1.377629 8.029412
O11 -2.046112 4.117058 -3.384129
O12 5.553308 -8.261648 2.513705
O13 4.482236 -7.740070 -6.516154
O14 -4.348205 3.165487 -11.254998
O15 2.962773 3.312442 -1.089973
O16 0.596117 -1.276255 -8.583279
O17 10.094405 -4.478128 3.691255
O18 -6.186103 5.456752 10.297723
O19 -4.912817 -2.147661 -6.190113
O20 4.155979 1.768931 -3.250624
O21 0.747342 -3.370847 0.346070
O22 0.597432 1.605894 -1.711044
O23 -8.057672 -7.843182 -3.792471
O24 -5.367649 9.450707 0.424827
O25 -1.321905 2.908566 -12.366064
O26 10.939012 -8.725977 4.852504
O27 3.770167 2.405742 1.383228
O28 5.049924 11.270972 -4.755508
O29 2.630569 3.030157 -7.747299
O30 2.422475 -0.058854 -4.993713
O31 -1.350752 9.342794 10.004985
O32 1.446863 -9.191361 2.225090
O33 0.999766 -1.462903 -1.375459
O34 -4.175232 -8.936499 -1.618669
O35 -4.294311 -6.171637 2.772828
O36 9.159779 13.453784 -7.401214
O37 10.619820 -4.542352 6.301142
O38 -11.753995 -5.718948 -8.721604
O39 3.231026 -5.127720 6.648342
O40 -10.119496 5.513934 -11.673548
O41 7.018984 4.968020 5.130167
O42 1.708755 -3.573703 2.940619
O43 -7.000018 -0.243109 -1.454867
O44 -1.561739 -0.255973 2.624890
O45 -3.192472 -2.244673 2.768868
O46 4.557273 6.431031 -10.205967
O47 -4.474507 3.033056 -5.680750
O48 -2.181927 2.264669 2.555342
O49 12.170720 -2.500554 -6.160153
O50 3.983675 -0.579741 1.554226
O51 8.251074 7.026768 12.654116
O52 5.297614 7.560334 -0.171812
O53 -7.796038 -3.723385 8.869497
O54 -4.320346 -14.986908 -2.002054
O55 0.649851 3.449589 6.246420
O56 -0.524980 -5.685000 -2.572383
O57 -0.796207 5.683674 12.364178
O58 1.552346 9.867517 -4.051116
O59 -5.249550 -0.286546 3.512028
O60 8.085847 7.527390 6.385011
O61 -5.496427 1.973401 -3.351965
O62 0.432082 -6.381209 6.506427
O63 2.168182 -5.432003 -2.163405
O64 -2.226660 -0.748878 0.066932
H1 -9.659917 -2.274693 -13.326336
H2 -8.414322 -3.098535 -13.030596
H3 -1.249486 7.076666 13.436509
H4 -2.033615 7.890063 14.534017
H5 -4.921835 7.362517 -4.342170
H6 -5.651573 6.912955 -2.876444
H7 -7.575153 -2.470241 4.480798
H8 -7.076467 -1.478224 5.508706
H9 4.517568 -4.893209 -9.121348
H10 3.948269 -4.583749 -7.744236
H11 -4.457416 0.593713 -2.796754
H12 -3.096314 0.250885 -1.953277
H13 3.441863 -0.116632 4.487745
H14 1.851096 -0.257683 4.199990
H15 -2.471438 0.201200 6.085915
H16 -2.579757 -0.247015 7.617712
H17 6.680261 -12.321008 -0.034853
H18 6.592743 -12.350316 1.567497
H19 1.071390 0.808416 7.856176
H20 -0.437155 0.840649 7.665714
H21 -1.734789 3.478402 -4.090295
H22 -1.425565 4.854760 -3.380095
H23 6.432401 -8.514572 2.063595
H24 4.883538 -8.934232 2.235871
H25 5.347550 -7.744072 -7.070492
H26 3.964091 -8.236356 -7.170386
H27 -3.619994 3.197880 -10.608979
H28 -4.576029 2.235604 -11.291880
H29 2.888531 4.354196 -1.069134
H30 2.127333 2.870212 -1.374369
H31 1.162092 -2.078451 -8.823858
H32 0.408712 -1.614787 -7.581956
H33 9.329409 -5.073075 3.670611
H34 9.749606 -3.560836 3.445234
H35 -6.706766 5.104633 9.613773
H36 -5.313902 5.036918 10.302292
H37 -5.044635 -1.769526 -5.279944
H38 -4.030703 -1.784402 -6.464800
H39 3.458210 1.295642 -3.788733
H40 3.652344 2.495272 -2.791105
H41 1.203635 -3.134757 1.225923
H42 -0.214725 -3.578515 0.659115
H43 0.800678 0.564203 -1.587025
H44 0.341627 1.562281 -2.733804
H45 -8.793744 -7.241129 -3.549225
H46 -8.003697 -7.697231 -4.771224
H47 -5.749909 10.281959 0.821428
H48 -4.992493 9.664978 -0.443491
H49 -0.453042 2.582868 -12.636845
H50 -1.771897 2.161045 -12.792809
H51 10.262687 -8.620851 5.541400
H52 11.728479 -8.951171 5.406623
H53 3.989504 1.479607 1.145500
H54 3.618230 2.854962 0.514934
H55 5.563919 11.570388 -3.950080
H56 4.346408 11.855595 -4.972778
H57 2.748859 2.098015 -7.971884
H58 2.306858 3.300211 -8.649507
H59 2.390355 -0.078786 -5.954345
H60 2.093956 -0.933925 -4.736286
H61 -1.266553 10.047187 10.744411
H62 -2.313283 9.243868 10.122144
H63 1.479843 -8.249632 1.939060
H64 2.303276 -9.556185 1.849326
H65 0.787994 -2.123755 -0.677260
H66 0.776708 -1.817643 -2.222275
H67 -3.362320 -8.769058 -2.167285
H68 -3.979003 -8.780899 -0.592084
H69 -5.129908 -5.529904 2.849870
H70 -4.353868 -6.138978 1.786433
H71 8.452325 13.017217 -8.015060
H72 8.610138 14.109397 -6.869556
H73 10.325074 -4.545669 5.303035
H74 11.121540 -5.420851 6.443051
H75 -11.634289 -6.108099 -7.794257
H76 -12.729908 -5.813463 -8.678951
H77 3.657415 -4.717089 7.394067
H78 3.717031 -5.936542 6.287776
H79 -11.085568 5.716009 -11.610845
H80 -9.580854 5.903673 -10.946770
H81 7.332836 5.168404 4.297940
H82 7.523457 5.518512 5.738503
H83 1.195170 -4.453406 3.128241
H84 2.655247 -3.607028 3.185436
H85 -7.496215 0.586944 -1.834974
H86 -7.644905 -0.878779 -1.143124
H87 -1.910095 0.797172 2.679506
H88 -0.631882 -0.260932 3.040079
H89 -2.592867 -1.420982 2.881179
H90 -3.322358 -2.335659 1.783458
H91 4.961984 5.477603 -10.011618
H92 4.922302 6.698548 -11.094532
H93 -4.991190 3.615135 -6.330342
H94 -5.112735 2.565545 -5.034599
H95 -1.510527 2.510228 1.822943
H96 -1.879916 2.842610 3.332434
H97 11.378962 -1.897815 -6.022318
H98 11.741122 -3.412236 -6.203002
H99 3.735647 -1.043623 0.748202
H100 3.275664 -0.571106 2.222145
H101 9.238760 6.938185 12.520368
H102 8.188715 7.975181 12.772903
H103 5.933274 8.324730 0.043137
H104 5.648735 6.832232 -0.825090
H105 -7.615943 -2.747149 8.825829
H106 -6.841969 -3.982222 8.909317
H107 -4.376061 -15.621722 -2.777228
H108 -4.001542 -14.092539 -2.438695
H109 1.490873 3.357724 5.625768
H110 0.668710 2.816395 7.024923
H111 0.495164 -5.547466 -2.593976
H112 -1.005342 -4.758439 -2.339688
H113 -0.915492 6.003379 11.456176
H114 -1.099972 4.731569 12.393557
H115 2.143944 9.059353 -4.170373
H116 0.947107 9.771968 -4.834638
H117 -6.186492 -0.565006 3.835368
H118 -4.916254 -1.159013 3.301845
H119 8.984886 7.843504 6.613040
H120 7.570717 8.354716 6.154233
H121 -6.514126 1.915098 -3.337682
H122 -5.315945 2.335005 -2.442018
H123 0.550034 -7.394410 6.563362
H124 1.169950 -5.885551 7.035413
H125 2.163035 -5.421979 -1.170661
H126 2.914550 -4.936143 -2.553302
H127 -1.762606 -0.434584 0.941481
H128 -3.174669 -0.541609 0.299963
