192
1 12.414492 0.000000 0.000000 0.000000 12.414492 0.000000 0.000000 0.000000 12.414492
O1 3.944738 -5.074869 3.969336
O2 -5.324003 -7.894122 -1.002631
O3 -9.461876 -0.027176 6.348558
O4 3.506955 4.853754 -4.870080
O5 -3.789315 6.800794 -8.575217
O6 6.240736 3.938509 -6.839263
O7 0.739743 -4.095131 -4.764860
O8 6.034570 -0.969112 -5.414000
O9 0.179019 -1.857734 -15.388294
O10 -2.827530 3.429533 0.420426
O11 -1.296605 -13.623056 14.209634
O12 -1.548382 3.459876 -7.828309
O13 8.760849 -3.336779 -3.868294
O14 -5.243207 2.193855 -2.959482
O15 -1.200649 7.316952 1.423619
O16 5.575899 12.142844 4.472609
O17 11.962135 -0.118925 11.151266
O18 10.129681 4.994813 2.452946
O19 1.966508 6.308916 -6.621052
O20 1.030330 -3.319954 1.621457
O21 -0.335162 -7.683791 6.548450
O22 4.901363 0.734461 -3.817793
O23 -8.551107 3.521994 -1.295252
O24 7.610210 8.329490 0.802102
O25 -6.546095 -0.553048 -0.374427
O26 -3.237943 -4.133346 -1.383356
O27 0.733355 5.141236 -10.176241
O28 0.860889 1.275603 0.482976
O29 -4.229799 -0.787966 3.926787
O30 2.342745 1.087765 -2.448590
O31 5.641678 -2.508921 1.365370
O32 -6.173538 -5.630759 5.321077
O33 3.950476 10.127859 3.379337
O34 1.323325 3.824770 -0.337163
O35 -1.461773 3.881223 -1.988986
O36 -4.123117 1.295483 2.012314
O37 3.582198 -6.856792 1.928366
O38 -16.261822 2.504548 -5.834104
O39 10.522365 -3.833630 -7.199340
O40 -0.799680 -11.807416 3.708355
O41 -2.793494 4.510411 8.245580
O42 -10.393032 2.958782 3.296556
O43 3.170841 -3.063158 7.900128
O44 -0.124515 -5.476200 -1.205687
O45 -3.524683 -2.933715 2.797166
O46 7.091158 -9.040303 3.150547
O47 -4.807979 6.445103 -2.950279
O48 4.003381 1.351704 0.337689
O49 2.780655 -1.749248 -2.140636
O50 -3.058578 -0.201894 -0.549350
O51 2.907634 -3.407030 0.062282
O52 -6.750880 -3.783225 -5.026545
O53 -2.369273 10.643634 -5.693762
O54 -9.770954 -5.919141 -0.504559
O55 0.954782 -3.695491 -7.635044
O56 -4.034172 0.014769 7.609157
O57 1.578118 -0.860574 4.015190
O58 4.677307 -5.840151 -3.058394
O59 0.580741 2.626781 8.084011
O60 -0.152129 -0.501947 7.120762
O61 -9.596873 2.815764 6.076448
O62 -4.889922 -1.317954 10.118932
O63 4.776277 1.739952 2.873075
O64 6.459873 5.710576 1.550580
H1 3.481827 -5.604413 4.650845
H2 4.914808 -5.186062 4.270526
H3 -4.450812 -8.301082 -0.814354
H4 -5.112345 -7.248705 -1.752207
H5 -9.286149 -0.234753 7.251523
H6 -9.430774 0.939082 6.221267
H7 3.876014 5.250366 -4.071804
H8 2.759901 5.439884 -5.150316
H9 -3.748490 7.577755 -9.203370
H10 -3.425319 6.046868 -9.087020
H11 6.122085 4.973600 -6.782785
H12 5.351113 3.707348 -6.475299
H13 0.370974 -3.690077 -3.939225
H14 0.332013 -3.704432 -5.524848
H15 5.958242 -1.962286 -5.133968
H16 5.553302 -0.397114 -4.743727
H17 -0.193753 -1.291747 -14.694732
H18 1.109682 -1.976748 -15.140245
H19 -3.101625 2.554474 0.841018
H20 -2.509702 4.048124 1.127298
H21 -0.319895 -13.763611 13.992871
H22 -1.621699 -13.426673 13.313793
H23 -1.090813 2.714132 -8.259261
H24 -2.194814 2.995429 -7.213536
H25 9.399075 -3.122877 -4.642407
H26 8.296667 -2.413120 -3.754542
H27 -5.290732 3.045314 -2.471079
H28 -4.419031 2.208095 -3.506617
H29 -1.125280 7.115171 0.477549
H30 -0.372338 7.848079 1.642110
H31 6.486321 11.993893 4.236912
H32 5.741216 11.961998 5.463821
H33 11.038507 -0.244839 11.461289
H34 12.372367 0.331759 11.923778
H35 10.803702 5.703417 2.159377
H36 10.687979 4.480487 3.055120
H37 1.430215 5.568000 -6.870988
H38 1.480773 7.140072 -6.846443
H39 1.824704 -3.339852 1.087818
H40 1.174154 -3.555489 2.540758
H41 -0.112035 -8.368832 7.211006
H42 -0.478890 -8.280904 5.709007
H43 5.537181 1.410461 -3.483153
H44 4.076761 0.776644 -3.199683
H45 -8.323392 2.834462 -0.620274
H46 -7.739924 4.038343 -1.337821
H47 6.948315 9.011161 0.775974
H48 8.101495 8.437017 -0.033102
H49 -5.901318 0.013278 0.030255
H50 -7.294196 0.018274 -0.494242
H51 -2.472526 -4.761440 -1.346890
H52 -3.201620 -3.808308 -2.285382
H53 1.062348 4.822678 -11.038036
H54 1.324788 5.850357 -9.885376
H55 0.851166 2.257138 0.291064
H56 0.701692 1.268468 1.490192
H57 -4.062310 -1.628759 3.481605
H58 -3.481921 -0.448294 4.506216
H59 2.770922 1.637772 -1.805155
H60 1.672087 1.560681 -2.968602
H61 4.980762 -2.435921 2.117622
H62 5.541179 -1.554977 0.904618
H63 -5.235934 -5.499829 4.796090
H64 -6.244039 -4.930870 6.122582
H65 3.854320 9.287566 3.908888
H66 4.461955 10.821383 3.921789
H67 2.096146 3.965858 -0.948848
H68 0.552790 4.181721 -0.799981
H69 -1.908834 3.765430 -1.162608
H70 -0.956456 3.045759 -2.198813
H71 -4.636331 2.023945 2.428128
H72 -4.090119 0.525832 2.687785
H73 4.560409 -6.763225 1.748921
H74 3.419411 -6.080926 2.509206
H75 -16.025908 3.254118 -5.254897
H76 -17.070327 2.991339 -6.309926
H77 9.986726 -3.134985 -6.642914
H78 9.840784 -4.198896 -7.832538
H79 -1.179962 -12.234204 2.836490
H80 0.083329 -12.207828 3.903205
H81 -2.248054 4.309937 9.061511
H82 -2.180685 4.784119 7.601141
H83 -9.471818 2.870579 3.038331
H84 -10.625953 3.778221 2.830408
H85 3.166903 -2.673080 8.765210
H86 2.320218 -3.552539 7.678734
H87 -0.152512 -4.573639 -1.586759
H88 0.770886 -5.596116 -0.742592
H89 -3.944994 -3.312262 1.973691
H90 -2.566491 -2.792993 2.629086
H91 7.033275 -8.603243 4.008726
H92 6.770385 -8.335835 2.532300
H93 -4.135489 7.099675 -2.521635
H94 -4.243240 5.775985 -3.497653
H95 3.024422 1.211362 0.460841
H96 4.371681 1.576518 1.379688
H97 2.444144 -2.087019 -1.305098
H98 2.659831 -0.757489 -2.160699
H99 -3.775443 -0.589652 -1.119523
H100 -3.328525 0.410280 0.162983
H101 2.945397 -4.282547 -0.247467
H102 3.856106 -3.073218 0.155308
H103 -7.722532 -3.504123 -4.819896
H104 -6.240964 -3.982331 -4.191755
H105 -3.016490 11.380303 -5.379145
H106 -1.464994 11.157167 -5.650414
H107 -9.186755 -6.151650 -1.273006
H108 -9.273754 -6.310177 0.296524
H109 0.000978 -3.913838 -7.570097
H110 0.879547 -2.709528 -7.697895
H111 -5.016019 -0.253885 7.459217
H112 -3.889840 0.880504 7.148479
H113 2.153709 -0.717903 4.821046
H114 2.141765 -1.270594 3.397585
H115 4.375764 -5.099531 -3.650639
H116 5.706551 -5.877575 -3.021252
H117 0.257106 1.700269 7.946460
H118 1.415411 2.650341 7.536041
H119 0.592895 -0.441366 6.515077
H120 0.162535 -0.908091 8.076930
H121 -10.040122 3.034673 5.245688
H122 -9.213159 3.653729 6.562408
H123 -5.209435 -0.568244 9.566708
H124 -5.595200 -1.328219 10.825266
H125 4.905746 0.946795 3.458345
H126 5.658003 2.096070 2.923625
H127 6.620298 5.442575 0.654559
H128 6.980360 6.478578 1.640860
