192
1 12.414492 0.000000 0.000000 0.000000 12.414492 0.000000 0.000000 0.000000 12.414492
O1 5.965517 -3.820019 4.449563
O2 -2.538136 -6.369010 -2.509456
O3 -17.335069 0.238531 7.855371
O4 12.205318 5.051373 -3.596711
O5 -1.514381 10.546983 -16.206980
O6 8.434900 7.185915 -8.465052
O7 3.201637 -8.010354 2.027275
O8 7.371805 -0.766975 -10.994487
O9 5.373088 1.102216 -19.815620
O10 -6.247151 0.031640 -0.753191
O11 -4.394385 -14.871439 8.192522
O12 3.175119 4.820008 -6.189642
O13 3.098569 -1.267903 -4.114710
O14 -6.447028 3.494398 -3.137112
O15 -1.578896 5.846329 4.550726
O16 6.623331 15.761253 6.405154
O17 11.569101 -0.196489 10.623898
O18 13.042779 2.375315 3.958563
O19 0.575398 11.025836 -5.622556
O20 1.216084 -4.000855 3.000667
O21 5.161350 -6.200016 9.882097
O22 -0.045723 0.883163 -6.409554
O23 -9.352937 1.088036 3.362218
O24 3.283283 10.388855 2.168856
O25 -0.893291 -1.735724 3.503675
O26 0.464401 -1.061001 1.482706
O27 2.929571 7.022478 -4.031117
O28 3.214837 2.197784 -1.879741
O29 -2.483558 0.173189 2.490927
O30 1.385767 8.066056 -1.554166
O31 4.392016 1.716368 0.718401
O32 -5.702172 -3.585128 10.282813
O33 1.357179 5.235353 4.256657
O34 -1.397000 8.409553 -1.685868
O35 -2.986366 3.021327 2.745725
O36 -1.374954 2.817932 7.582860
O37 6.242969 -6.617614 3.044015
O38 -11.261284 1.812831 -11.348005
O39 9.376701 -8.778312 -6.864849
O40 -1.083536 -17.646968 7.178423
O41 -5.890776 3.860334 1.220628
O42 -14.131833 5.263352 1.654717
O43 3.782909 -6.667801 12.135897
O44 -5.200999 -4.229618 0.382472
O45 -1.871451 -1.412990 0.184573
O46 4.480587 -4.392787 2.182891
O47 -4.297378 5.686691 -0.555057
O48 -0.203413 3.572417 -0.444316
O49 1.864994 -0.128681 -2.351369
O50 -7.689393 0.751847 -4.926590
O51 1.257757 -3.720601 -6.691786
O52 -3.516223 -0.773656 -6.707869
O53 -2.538044 8.868804 -10.469587
O54 -6.717097 -6.749679 5.614913
O55 0.892070 -6.158760 -11.184321
O56 -8.330056 -3.538736 6.833413
O57 -2.167546 2.421392 -2.131305
O58 2.250186 -1.931322 -0.299828
O59 -3.768581 -4.664247 6.542202
O60 1.798370 -7.830094 10.537374
O61 -6.726248 -1.105761 3.283154
O62 -7.842302 -1.762085 10.565931
O63 2.885628 2.518365 7.739059
O64 7.677083 1.859413 -1.400248
H1 6.902807 -4.125858 4.323826
H2 5.551473 -4.302706 3.696060
H3 -2.932270 -6.257615 -3.421437
H4 -3.273995 -6.512761 -1.840233
H5 -16.770624 0.715154 8.472113
H6 -18.141467 0.784080 7.620193
H7 12.008033 4.496358 -4.349792
H8 11.452035 4.997296 -2.998724
H9 -0.816747 10.520003 -16.888701
H10 -2.397284 10.424752 -16.616311
H11 8.519354 7.376152 -7.464750
H12 7.745054 6.460417 -8.579820
H13 2.553260 -8.632137 1.658735
H14 2.716000 -7.450739 2.667995
H15 7.371749 -0.087064 -11.704740
H16 8.271172 -0.584796 -10.557379
H17 5.630506 0.251503 -20.183528
H18 6.112623 1.696349 -19.534056
H19 -6.760221 -0.695670 -1.203914
H20 -6.825660 0.616692 -0.209864
H21 -4.763026 -13.934251 8.205696
H22 -4.826087 -15.319815 8.971420
H23 3.982242 5.324364 -6.409558
H24 2.581072 5.162134 -6.887319
H25 2.356463 -0.937085 -3.412211
H26 3.785479 -0.467246 -4.393905
H27 -6.811422 4.426492 -2.902505
H28 -6.302342 3.434278 -4.113207
H29 -1.598305 5.560810 3.616346
H30 -2.311508 6.532676 4.679960
H31 7.551473 15.870983 6.090060
H32 6.186712 16.560565 5.950465
H33 11.145021 -0.697760 9.827002
H34 11.276592 0.739436 10.346065
H35 12.715104 2.003088 3.081842
H36 13.983480 2.039359 3.972224
H37 0.439983 11.987294 -6.060497
H38 1.490369 11.014061 -5.177139
H39 1.944679 -3.326991 2.934124
H40 0.782332 -3.756112 3.847788
H41 4.759422 -6.388583 10.813117
H42 4.402084 -5.877281 9.281331
H43 0.199898 1.313427 -7.277657
H44 -0.582131 1.573097 -5.812708
H45 -9.388649 0.163764 3.089475
H46 -8.431578 0.970178 3.810432
H47 3.089598 10.438233 1.199417
H48 4.174651 10.737464 2.500940
H49 -0.236868 -1.291706 2.937509
H50 -0.920472 -1.440502 4.422145
H51 1.390707 -1.272537 1.065016
H52 -0.277010 -1.516623 0.967760
H53 2.789675 6.321599 -4.709355
H54 3.441576 7.748907 -4.551453
H55 4.085265 2.256061 -2.300629
H56 2.625472 3.016097 -2.049263
H57 -2.177804 -0.154660 1.578533
H58 -2.040311 -0.497664 3.084306
H59 0.357613 8.022657 -1.591093
H60 1.624846 7.736609 -2.483781
H61 3.795653 1.642364 1.528871
H62 3.789441 1.870813 -0.057737
H63 -6.025443 -4.538548 10.093868
H64 -6.427337 -2.983350 10.607360
H65 1.301449 4.257653 4.196272
H66 0.379770 5.388752 4.333901
H67 -1.554558 8.888434 -2.542086
H68 -1.938088 7.553913 -1.784370
H69 -2.444204 3.713806 2.235861
H70 -2.559644 2.130279 2.534222
H71 -1.952912 2.920667 6.810319
H72 -1.959632 2.799657 8.375489
H73 6.422335 -7.294094 2.331915
H74 5.525827 -6.042933 2.707594
H75 -11.856437 2.355949 -11.926826
H76 -11.606010 0.918804 -11.407870
H77 9.525215 -9.320757 -7.731759
H78 9.822559 -7.929767 -7.034674
H79 -0.894490 -18.389242 7.764317
H80 -0.245604 -17.370882 6.689325
H81 -6.666484 3.350829 1.508459
H82 -5.043332 3.325061 1.226934
H83 -14.803486 5.264215 0.948476
H84 -13.298132 5.732900 1.327359
H85 3.369636 -5.774854 12.324435
H86 3.742308 -7.119276 13.054182
H87 -5.281459 -3.961126 -0.541068
H88 -4.537190 -3.668886 0.731662
H89 -2.062766 -2.385053 0.270853
H90 -1.635787 -1.036844 -0.641660
H91 3.990695 -3.495351 2.295132
H92 4.989581 -4.366573 1.362540
H93 -4.310782 6.540731 -0.076741
H94 -4.878128 5.105777 -0.105837
H95 -0.410274 4.334295 0.201054
H96 0.501481 4.017682 -1.061361
H97 0.930470 0.114183 -2.343058
H98 2.444808 0.734438 -2.418104
H99 -8.371138 1.552876 -4.690653
H100 -7.581652 0.804474 -5.932152
H101 0.874854 -2.842309 -6.380812
H102 2.213928 -3.652089 -6.535660
H103 -4.016331 -0.574810 -5.880888
H104 -3.487236 0.153023 -7.053484
H105 -1.973660 9.519529 -9.928375
H106 -2.740953 8.163045 -9.848243
H107 -6.580463 -6.672622 4.611531
H108 -6.315678 -5.869986 5.884616
H109 0.936040 -5.829798 -12.085309
H110 0.924604 -5.280066 -10.685206
H111 -7.708954 -3.253785 6.161908
H112 -8.420485 -2.755305 7.412491
H113 -3.085498 2.170576 -1.734352
H114 -1.725059 2.982430 -1.455905
H115 1.761408 -2.705806 -0.649322
H116 1.909280 -1.301052 -0.996982
H117 -2.836342 -4.839008 6.826167
H118 -3.957681 -3.754104 6.896245
H119 1.433245 -7.303818 9.799623
H120 2.376035 -7.248307 11.005694
H121 -6.556061 -1.993170 3.734474
H122 -5.897974 -0.850634 2.674317
H123 -8.198069 -1.589195 9.668165
H124 -8.692911 -2.122937 10.915073
H125 2.259948 1.930138 7.257526
H126 3.186233 3.199753 7.085191
H127 6.996835 2.402639 -1.817327
H128 7.113960 0.987045 -1.258289
