192
1 12.414492 0.000000 0.000000 0.000000 12.414492 0.000000 0.000000 0.000000 12.414492
O1 -8.345024 -0.302784 0.943613
O2 14.612992 -3.070513 -1.649272
O3 2.436784 1.130269 7.677811
O4 -3.880352 7.856778 -9.170664
O5 -0.430842 4.351506 3.304421
O6 -0.847981 4.474779 -0.745662
O7 -2.755975 3.058263 1.197897
O8 -4.299856 1.385339 5.005753
O9 -1.427362 -1.936604 0.498807
O10 -5.191367 -1.410267 11.056914
O11 3.822426 2.609450 3.354248
O12 -8.431928 -3.669129 4.326371
O13 -2.969985 -3.528113 -1.301386
O14 -11.633102 1.169770 -8.683960
O15 -11.480984 3.140054 5.639789
O16 7.931768 1.837091 -3.346141
O17 -1.025932 -1.011943 -4.235013
O18 5.458567 -2.448860 0.540689
O19 -1.448201 8.493960 -7.707897
O20 0.588538 1.527726 -1.185350
O21 12.372929 2.367901 1.528186
O22 7.051246 -2.308333 2.838513
O23 4.496268 -4.281496 -2.653276
O24 6.143539 -2.252814 -3.752528
O25 -0.213096 6.984592 2.887106
O26 -6.023749 -4.775497 -7.070961
O27 5.641225 -10.764267 0.319487
O28 -2.677217 3.842642 -7.459108
O29 -5.310580 5.697101 7.146153
O30 6.382601 2.621171 -5.502979
O31 -3.609362 1.208662 -0.590036
O32 1.607219 -3.236970 1.266850
O33 10.991940 -0.967913 -8.208972
O34 -0.547637 -4.119127 9.502163
O35 6.103738 -0.297250 4.639734
O36 -6.458521 3.235497 -10.022175
O37 2.115083 5.007853 -3.801708
O38 3.868601 3.559857 5.800406
O39 -7.420274 -0.658835 -5.383594
O40 -1.393009 -0.072909 -1.362177
O41 -2.737734 -7.167557 -4.902814
O42 1.135678 10.653867 3.620008
O43 -7.550674 -7.006293 -3.474053
O44 10.495225 1.429310 -4.783911
O45 -4.248531 -6.098439 -0.938752
O46 3.458102 -0.290680 3.613173
O47 7.972348 -3.557892 -5.340067
O48 -4.662578 -7.072815 -9.258102
O49 1.896013 11.681898 -0.438808
O50 2.722477 16.103626 0.430317
O51 -1.977389 -4.817155 -5.186861
O52 -2.978303 -7.904811 10.145123
O53 3.481807 -5.746315 0.850951
O54 2.312776 -5.530793 -6.110205
O55 -6.794042 -4.879325 -0.302314
O56 0.542032 2.723675 8.745491
O57 -3.362494 -1.118862 6.356592
O58 3.646018 0.738094 9.924293
O59 -9.239751 5.871230 3.657353
O60 1.669790 -1.640726 -5.366289
O61 13.574872 -5.810948 -1.290342
O62 -2.800109 6.458159 1.307149
O63 -3.184022 -0.522858 1.977604
O64 4.746235 3.334704 -1.736479
H1 -7.829070 0.512569 0.738045
H2 -8.589795 -0.376599 1.890229
H3 13.816810 -3.499772 -2.018223
H4 14.496257 -2.125726 -1.826467
H5 2.096279 0.312875 7.283567
H6 2.792696 0.865973 8.563098
H7 -4.642695 8.593157 -9.329318
H8 -3.213668 8.124105 -8.568279
H9 -0.292475 5.371678 3.335116
H10 -1.302576 4.106744 3.735997
H11 -1.412704 4.604399 0.039316
H12 -1.564180 4.484094 -1.518303
H13 -3.158769 3.687872 1.785822
H14 -1.765271 2.883648 1.462524
H15 -4.940826 1.705790 5.638891
H16 -5.025377 0.940099 4.484603
H17 -0.545881 -2.074717 0.901520
H18 -1.183197 -1.269258 -0.267457
H19 -5.200394 -0.525355 11.479899
H20 -5.939671 -1.837935 11.471696
H21 4.666002 2.711276 2.901176
H22 3.366864 1.738886 3.336949
H23 -8.935151 -3.938176 5.199770
H24 -8.637321 -4.594756 3.876384
H25 -2.704610 -3.220079 -0.429749
H26 -3.432102 -2.763816 -1.758884
H27 -11.709865 1.492642 -7.747997
H28 -11.106262 0.381840 -8.604022
H29 -12.090626 3.470362 6.264862
H30 -11.826326 3.514637 4.852643
H31 8.828589 1.737543 -3.913592
H32 7.136907 1.818695 -3.964945
H33 -0.130917 -1.386357 -4.371333
H34 -1.166903 -1.019215 -3.246374
H35 5.033271 -3.275684 0.385821
H36 4.877015 -1.746142 0.911431
H37 -1.613465 8.236425 -6.696456
H38 -1.381918 9.504031 -7.797815
H39 0.530322 1.999518 -0.309985
H40 0.850069 2.079717 -1.873558
H41 12.556064 3.245913 2.000733
H42 12.636341 1.635211 2.183168
H43 6.419196 -2.365556 2.105370
H44 7.831585 -1.806472 2.519960
H45 3.566039 -3.897369 -2.538507
H46 5.133504 -3.562606 -3.173267
H47 6.856824 -2.891603 -4.032720
H48 6.397413 -1.877549 -2.844719
H49 0.510292 7.374725 2.420930
H50 -0.489175 7.642322 3.609481
H51 -6.897859 -4.236003 -7.441653
H52 -5.798002 -5.329169 -7.839306
H53 5.562244 -10.239172 -0.545953
H54 5.655341 -10.003488 1.046332
H55 -2.522590 4.458434 -6.620203
H56 -3.043200 2.986003 -7.113713
H57 -4.306778 5.586391 7.224903
H58 -5.660379 6.429519 6.552948
H59 5.378538 2.653589 -5.636767
H60 6.580395 3.572332 -5.710272
H61 -4.120459 1.514453 -1.372087
H62 -3.528482 1.995384 0.089557
H63 1.604689 -2.867601 0.350351
H64 2.131486 -4.071956 1.266678
H65 10.361938 -0.885334 -7.420695
H66 10.457752 -0.508349 -8.918888
H67 -0.098858 -4.844841 10.047685
H68 -1.284515 -3.974527 10.126668
H69 5.625728 -0.550645 5.516780
H70 6.281645 -1.184993 4.308468
H71 -5.772349 2.590737 -9.726893
H72 -6.084806 4.169622 -9.706879
H73 2.023201 5.717844 -4.555118
H74 3.090088 4.969144 -3.662076
H75 3.862378 3.030125 4.924533
H76 2.999193 3.454188 6.265730
H77 -7.724712 0.274426 -5.218665
H78 -6.802544 -0.972252 -4.602712
H79 -0.547526 0.525141 -1.342866
H80 -2.187349 0.391610 -1.066724
H81 -2.735371 -7.702918 -4.033129
H82 -2.208026 -6.301690 -4.863490
H83 0.207324 10.895898 3.842041
H84 1.241856 10.330833 2.706174
H85 -7.802039 -6.044690 -3.331240
H86 -6.759047 -6.989497 -4.092474
H87 10.925103 2.150058 -4.246850
H88 11.005824 0.574300 -4.631857
H89 -4.028448 -5.185647 -1.310825
H90 -3.648419 -6.033311 -0.072490
H91 3.080548 -1.171550 3.792324
H92 4.383371 -0.276455 3.995592
H93 7.411709 -4.032469 -6.099594
H94 8.169442 -2.679327 -5.697660
H95 -4.166853 -7.545900 -8.621685
H96 -4.228579 -6.303028 -9.499062
H97 2.716258 11.765484 0.146189
H98 1.476724 12.604166 -0.585073
H99 2.110919 15.520794 0.952627
H100 3.260231 16.520407 1.128232
H101 -1.447682 -4.405882 -4.438633
H102 -2.839914 -4.438475 -5.083918
H103 -3.374169 -8.770242 10.367189
H104 -3.455840 -7.189429 10.616710
H105 4.415685 -5.693180 0.498528
H106 2.836320 -5.934585 0.114740
H107 2.472688 -5.723804 -7.090874
H108 1.410408 -5.135613 -6.008166
H109 -5.927357 -5.376247 -0.401958
H110 -7.149450 -4.877573 -1.230554
H111 0.970592 3.598205 8.967240
H112 1.155307 2.096103 8.229498
H113 -2.564474 -1.031016 6.950764
H114 -3.700883 -0.183994 6.324865
H115 3.149086 0.299707 10.628433
H116 3.999878 1.654569 10.232787
H117 -9.445206 5.985872 2.684436
H118 -9.304368 5.011024 4.109439
H119 1.393223 -1.916855 -6.213911
H120 2.028464 -2.443994 -4.975915
H121 14.174603 -6.059932 -2.072552
H122 12.923831 -6.520482 -1.260710
H123 -1.878309 6.295171 1.659108
H124 -3.101083 7.166425 1.911585
H125 -2.485789 -0.983073 1.376642
H126 -3.473777 0.257993 1.499627
H127 3.835289 3.444176 -1.355650
H128 4.976011 4.032401 -2.347725
