192
1 12.414492 0.000000 0.000000 0.000000 12.414492 0.000000 0.000000 0.000000 12.414492
O1 -2.792181 -3.163423 -3.343865
O2 3.210029 5.039815 -1.121957
O3 -9.258724 -1.303800 12.491872
O4 5.706483 9.252468 -0.730116
O5 -0.936761 -9.096607 5.858329
O6 6.866141 -3.096440 9.175721
O7 1.399867 4.041529 0.725102
O8 8.658052 -2.361371 0.979093
O9 -4.269232 3.801263 8.044200
O10 0.393291 -2.069272 0.864009
O11 1.599221 4.723862 -6.110921
O12 -9.471601 2.233878 15.113806
O13 -0.826433 0.210020 -12.142804
O14 0.730318 -1.292999 3.898961
O15 -1.598396 -10.224119 1.972880
O16 7.632648 -0.954439 3.026366
O17 5.902628 -7.824931 -10.883790
O18 3.583416 3.002801 -3.020293
O19 3.350724 -15.152283 3.656533
O20 5.636812 -9.423476 -7.504434
O21 1.725367 0.080513 -2.605784
O22 -1.571753 0.854032 -3.749767
O23 -0.121988 -6.107806 -7.652580
O24 -2.068954 7.206020 -1.644711
O25 10.501483 7.984252 0.869596
O26 -3.300340 5.159569 2.275410
O27 -7.034176 6.711213 -0.260051
O28 4.561413 -7.154920 3.841392
O29 0.546823 8.680171 5.667027
O30 -3.656644 -9.302598 5.266770
O31 -4.826705 -0.552752 -3.950782
O32 -5.886995 1.844665 -3.163308
O33 6.128178 -5.214682 -5.204212
O34 -3.726045 -4.604301 3.752518
O35 -0.463726 -1.962442 -2.942031
O36 -11.543610 -4.969293 0.046749
O37 1.562346 -0.317990 -5.769220
O38 4.176354 -0.277471 -9.454795
O39 2.982038 -10.136205 -5.838639
O40 8.454647 14.150742 2.948147
O41 0.139615 15.472280 -4.104373
O42 -2.328858 -5.808661 -5.940338
O43 -6.582755 1.951401 1.888018
O44 9.236661 0.467241 -1.409271
O45 2.837160 7.161165 2.305054
O46 6.866850 -3.022290 4.532806
O47 1.440663 8.887518 8.340293
O48 -8.217162 -1.660001 9.501661
O49 -0.649275 -8.935740 -1.135493
O50 7.178135 2.118881 -0.366384
O51 1.575610 6.500553 -2.725953
O52 -2.988394 -0.077454 -6.288154
O53 -7.355945 0.471596 -6.861542
O54 -17.271690 -6.543180 -7.226293
O55 -1.021221 5.559459 -3.680359
O56 -8.151308 7.280921 -7.138338
O57 -3.270381 4.084762 -0.260133
O58 6.249137 5.221890 -3.611375
O59 0.520237 1.760349 4.072800
O60 7.996616 -6.563386 -1.587464
O61 9.320189 -2.902080 6.428445
O62 1.706523 1.535089 -0.414733
O63 10.881357 -2.918090 4.076226
O64 -0.109496 -6.594983 2.171587
H1 -3.670059 -2.761035 -3.065127
H2 -2.852075 -3.025635 -4.360270
H3 4.073392 5.505653 -0.969608
H4 3.394520 4.298696 -1.705796
H5 -9.213890 -0.333472 12.305692
H6 -10.179460 -1.581476 12.732064
H7 5.093182 9.735934 -0.105104
H8 5.330515 8.355898 -0.721386
H9 -1.891013 -9.075751 5.618188
H10 -0.389527 -9.762717 5.288517
H11 6.385142 -3.133827 10.013735
H12 7.041531 -2.128768 8.955419
H13 0.965564 4.759294 1.277880
H14 2.125486 4.600608 0.192600
H15 7.966003 -2.708587 0.400252
H16 9.172112 -1.974899 0.258149
H17 -5.112954 4.345655 8.061683
H18 -3.959404 3.526623 7.159903
H19 -0.220835 -1.261971 0.537355
H20 0.525108 -2.013551 1.809408
H21 0.911956 5.174559 -6.641319
H22 2.223684 5.404417 -5.792220
H23 -9.802798 2.861204 14.403065
H24 -8.485335 2.300598 14.962915
H25 0.000524 0.841854 -12.285288
H26 -1.473233 0.414616 -12.838296
H27 0.742532 -1.071814 4.895403
H28 1.695316 -1.466243 3.667615
H29 -1.237726 -10.799022 1.277299
H30 -0.930042 -10.192211 2.738096
H31 7.371776 -1.710890 3.661948
H32 8.010103 -1.468728 2.237889
H33 6.738602 -7.515688 -10.432925
H34 5.729894 -8.799982 -10.643437
H35 2.929342 2.444632 -3.455660
H36 3.904336 3.496272 -3.778380
H37 3.209128 -15.955746 3.096273
H38 3.386022 -14.224080 3.267091
H39 5.326462 -10.392579 -7.602995
H40 6.610291 -9.467894 -7.503549
H41 2.668374 -0.303397 -2.539265
H42 1.189937 -0.788451 -2.570226
H43 -0.919074 1.616446 -3.926126
H44 -2.287010 1.143218 -3.124786
H45 0.203430 -5.228338 -7.252719
H46 -0.911540 -6.268201 -7.019013
H47 -1.711066 6.357572 -2.178557
H48 -2.242313 7.983324 -2.201408
H49 9.915911 8.740576 1.013956
H50 10.494118 7.638966 -0.068699
H51 -2.346740 5.573427 2.309100
H52 -3.146339 4.460509 2.934840
H53 -6.072674 6.299049 -0.547879
H54 -7.248078 6.395510 0.650586
H55 4.951489 -7.143183 2.967500
H56 4.848752 -7.866004 4.397612
H57 1.184229 9.180532 5.122468
H58 0.755624 8.664703 6.652359
H59 -3.924775 -8.324328 5.267507
H60 -3.922294 -9.765313 4.359177
H61 -5.346817 0.279042 -3.820889
H62 -4.354748 -0.278099 -4.795809
H63 -5.603009 2.679530 -3.730409
H64 -6.827320 2.084834 -2.914875
H65 6.259338 -4.272011 -4.744304
H66 5.389303 -5.142735 -5.876442
H67 -3.101196 -3.823246 3.975059
H68 -3.534086 -4.895752 2.857653
H69 -0.561214 -1.101113 -3.425334
H70 -1.426617 -2.242046 -2.912734
H71 -11.330090 -5.277383 -0.887297
H72 -12.113388 -4.148461 0.063424
H73 1.404213 -0.287785 -4.793811
H74 2.109695 0.465609 -5.924048
H75 3.682742 0.506544 -9.725853
H76 4.617070 -0.503403 -10.289692
H77 2.550793 -9.283240 -6.086204
H78 3.930373 -10.098234 -6.090624
H79 8.250892 13.150348 2.889116
H80 9.343855 14.307241 2.459377
H81 -0.401228 15.519525 -4.942370
H82 0.909771 16.038233 -4.351973
H83 -2.434992 -5.019454 -6.452249
H84 -3.236541 -6.183323 -5.996111
H85 -6.183041 1.984670 0.988184
H86 -5.921232 1.818183 2.594582
H87 8.488385 0.928549 -0.893037
H88 8.610475 -0.141146 -1.832445
H89 2.070086 7.148431 1.709506
H90 2.641480 6.617531 3.052757
H91 7.367672 -3.817510 4.152861
H92 5.923841 -3.148050 4.323923
H93 1.574618 8.015898 8.774361
H94 0.642714 9.366003 8.698204
H95 -7.765847 -2.049999 10.248701
H96 -8.732780 -2.469872 9.242754
H97 0.139670 -8.585943 -0.622717
H98 -0.307393 -9.038175 -2.045714
H99 6.951301 2.078381 -1.316704
H100 7.777599 2.931123 -0.387084
H101 2.162041 5.738258 -2.328971
H102 0.789925 5.973672 -3.157911
H103 -3.207303 0.592856 -6.883087
H104 -2.222605 0.289053 -5.777683
H105 -6.573588 0.102248 -6.350588
H106 -7.629153 -0.201803 -7.472831
H107 -17.099182 -5.688889 -7.756791
H108 -17.935334 -6.344696 -6.543778
H109 -1.107208 4.629707 -3.838513
H110 -1.439877 5.886318 -4.452389
H111 -8.131442 6.425005 -7.819659
H112 -8.722778 8.023369 -7.406611
H113 -3.332506 4.448732 0.668848
H114 -2.325679 3.935774 -0.475855
H115 6.935514 5.484158 -2.847194
H116 6.164430 6.126124 -4.068922
H117 0.450043 0.802978 4.018642
H118 1.399695 2.034197 3.724291
H119 8.417101 -7.262441 -1.025546
H120 8.746030 -6.019154 -1.930636
H121 9.357448 -1.927937 6.160741
H122 8.365196 -3.208448 6.352528
H123 1.462035 2.459953 -0.271154
H124 1.713098 1.180695 -1.388557
H125 11.453504 -3.177763 4.791251
H126 11.502028 -2.269731 3.697865
H127 -0.217220 -5.744108 1.692010
H128 -0.057555 -6.326995 3.163675
