192
1 12.414492 0.000000 0.000000 0.000000 12.414492 0.000000 0.000000 0.000000 12.414492
O1 12.880439 1.105183 -5.577168
O2 -4.111938 -3.116540 -4.457113
O3 10.509599 3.546950 -0.797886
O4 0.853807 11.596065 11.130609
O5 -6.658612 6.489052 4.547201
O6 2.665409 -1.765699 0.543226
O7 -6.827585 0.533571 -2.976899
O8 -1.722437 -1.078683 -7.250577
O9 2.890552 -3.048529 -4.936061
O10 -3.672729 -2.773441 -7.321982
O11 -0.244172 7.179381 -5.936017
O12 7.599903 -6.788600 -3.992995
O13 -8.066455 -0.299607 -8.050480
O14 3.011034 -12.081068 6.848196
O15 10.515255 -13.268764 10.634712
O16 -5.955119 -6.829746 0.095981
O17 -2.716105 2.561350 -9.291691
O18 8.646968 -3.085144 0.303237
O19 -3.493920 4.406053 1.239323
O20 -0.193899 8.151353 2.256636
O21 -5.764182 -8.448598 10.336763
O22 4.782488 -1.122749 -0.976158
O23 6.746940 -0.609627 7.295126
O24 6.649938 12.757824 0.899453
O25 -2.191211 -6.119396 2.749085
O26 2.819514 -0.991594 -3.480584
O27 -3.013976 1.024171 6.637236
O28 -1.526753 -7.125894 -3.992909
O29 -6.674281 7.630816 8.592214
O30 -7.603413 -3.694752 -1.100500
O31 -0.250079 2.922714 -3.574160
O32 -2.190065 -1.198908 1.116068
O33 -6.058342 4.661993 -6.115792
O34 0.049695 -4.162959 -0.809207
O35 -0.583431 -7.390832 4.831448
O36 -6.106219 9.933450 -10.498105
O37 1.206461 5.688942 9.733115
O38 -1.820479 6.381573 -1.556116
O39 -9.525369 6.760217 -4.464693
O40 -4.399118 -4.736420 3.269922
O41 1.953410 3.446164 10.758326
O42 4.702873 -18.683610 1.807797
O43 7.809850 -9.664342 5.048321
O44 -0.023422 -10.348366 0.247661
O45 -8.406370 -3.320029 2.985554
O46 2.222850 -0.453484 2.740882
O47 -2.441966 1.433421 -3.156280
O48 -4.591292 1.723670 -1.782730
O49 -4.387908 7.226003 -13.538829
O50 -8.369720 3.167449 -5.649193
O51 -1.229855 -3.073590 -3.396672
O52 3.185107 3.991221 2.430626
O53 -3.838220 0.185746 2.716594
O54 -7.445508 -3.177949 -6.762585
O55 16.640643 2.982571 -2.950898
O56 6.913393 -1.211721 4.183246
O57 0.049906 -1.890129 -5.657266
O58 5.330955 2.253363 3.414756
O59 11.943691 -10.013414 4.528796
O60 2.371095 5.172204 -6.538932
O61 -0.326633 -1.823545 3.074127
O62 2.253993 7.117069 3.791511
O63 2.535287 7.265685 12.007113
O64 1.427465 -10.403222 -9.873372
H1 13.871458 0.893145 -5.616392
H2 12.516370 0.181006 -5.590225
H3 -4.453821 -2.229766 -4.581621
H4 -4.937987 -3.686628 -4.600335
H5 9.925249 3.144958 -1.454251
H6 9.801918 3.904985 -0.153930
H7 -0.063567 11.692209 10.856738
H8 1.416510 11.483950 10.306049
H9 -5.875975 6.783811 4.113784
H10 -7.238827 6.152914 3.773678
H11 2.680878 -1.083748 1.383021
H12 2.081158 -1.374243 -0.065955
H13 -7.151116 -0.025929 -2.177369
H14 -6.214573 1.217213 -2.634643
H15 -1.149655 -1.584089 -6.626685
H16 -2.127235 -0.265791 -6.819966
H17 3.674498 -3.029023 -5.563787
H18 2.821038 -4.075413 -4.684638
H19 -2.966188 -2.175971 -7.495249
H20 -3.599456 -3.006049 -6.353202
H21 -0.397792 6.540933 -6.701987
H22 0.614117 7.623785 -6.159235
H23 7.331379 -7.608818 -3.397855
H24 8.539238 -6.858544 -4.005937
H25 -7.258346 -0.763004 -8.009680
H26 -8.591228 -0.201528 -7.183625
H27 3.412672 -11.155551 6.864383
H28 2.942290 -12.460871 7.827791
H29 10.184275 -12.468406 10.009622
H30 10.418152 -12.965415 11.518729
H31 -5.144183 -6.128929 -0.348758
H32 -5.380152 -7.370269 0.702698
H33 -3.281099 2.854591 -8.534663
H34 -1.799179 2.376394 -8.907936
H35 9.285990 -2.427056 0.578068
H36 9.183149 -3.791593 0.747142
H37 -2.951325 5.146491 1.473880
H38 -3.227177 3.840554 2.039958
H39 -0.309100 9.147038 2.565782
H40 -0.076093 8.372458 1.282139
H41 -6.607178 -8.708107 9.923049
H42 -5.895026 -7.776059 11.074467
H43 5.076120 -2.039114 -1.170204
H44 3.917306 -1.312051 -0.483711
H45 6.125662 -0.384063 8.012885
H46 6.338972 -0.804339 6.407491
H47 6.208748 12.000877 0.451949
H48 6.958731 13.266922 0.147922
H49 -1.484466 -5.524079 2.439577
H50 -3.061517 -5.691738 2.788804
H51 3.494500 -0.894498 -2.888085
H52 3.055482 -1.930156 -3.882075
H53 -3.401622 1.872869 6.341331
H54 -3.845209 0.494664 6.503188
H55 -1.036983 -6.610811 -4.662003
H56 -0.941438 -7.983831 -3.948795
H57 -5.982637 6.981177 8.928158
H58 -7.424165 7.102503 8.148494
H59 -7.293979 -4.179664 -1.847703
H60 -8.549055 -3.815102 -0.920792
H61 -0.011471 2.217094 -4.330802
H62 0.581149 2.955660 -2.967869
H63 -1.386113 -1.295945 1.759254
H64 -2.829432 -0.876154 1.886516
H65 -5.495716 5.283290 -5.576899
H66 -6.372483 5.321854 -6.842719
H67 -0.101476 -3.261283 -1.224872
H68 -0.674091 -4.793513 -1.050258
H69 -1.130528 -7.112263 4.029731
H70 -0.517686 -8.372529 4.572182
H71 -5.397072 9.711683 -11.129411
H72 -5.708284 10.403609 -9.720251
H73 0.303585 5.855738 9.442645
H74 1.369839 4.759897 10.067867
H75 -1.661993 5.546027 -1.046183
H76 -1.747570 6.142300 -2.526492
H77 -10.108603 6.577554 -3.694738
H78 -9.798739 6.157068 -5.208033
H79 -4.291027 -3.935319 3.853230
H80 -5.213968 -4.380056 2.800356
H81 1.679195 2.810734 11.432460
H82 2.846408 3.105810 10.417918
H83 5.426136 -18.795387 1.173269
H84 4.150936 -18.025766 1.331090
H85 7.091061 -10.120614 4.461188
H86 7.282621 -8.907888 5.466053
H87 -0.750111 -9.702080 -0.045289
H88 -0.422729 -11.248755 0.257767
H89 -7.546857 -2.984306 2.589093
H90 -9.178635 -2.838000 2.523933
H91 1.920935 0.488949 2.573255
H92 2.971105 -0.550688 3.438636
H93 -2.837183 1.319365 -4.094839
H94 -1.634766 2.017440 -3.222966
H95 -3.719145 1.621638 -2.256096
H96 -4.947643 2.592454 -2.045937
H97 -4.331975 8.198550 -13.210184
H98 -3.476917 6.865860 -13.706837
H99 -7.506558 3.605953 -5.797760
H100 -8.990544 3.746753 -6.203941
H101 -2.045385 -3.321218 -3.856634
H102 -1.403392 -2.312667 -2.766619
H103 3.477228 4.837210 2.038092
H104 3.960441 3.460907 2.742433
H105 -3.343424 1.087000 2.744333
H106 -4.467268 0.240435 1.950921
H107 -8.091191 -3.128500 -7.507108
H108 -7.238489 -4.166017 -6.963243
H109 17.021481 2.060868 -3.137818
H110 16.399856 3.394930 -3.819121
H111 7.451937 -0.447237 4.041557
H112 7.469564 -1.909621 4.625742
H113 1.032236 -2.092281 -5.735939
H114 -0.162581 -2.365964 -4.824126
H115 4.928385 1.694636 4.083328
H116 5.432945 1.619241 2.660864
H117 12.288834 -10.461743 5.370517
H118 12.678576 -10.093320 3.865789
H119 1.461164 4.929290 -6.943593
H120 2.658453 5.834536 -7.190752
H121 0.507367 -1.317016 3.394010
H122 -0.889825 -1.471302 3.841531
H123 1.448601 7.258025 3.265589
H124 3.017986 7.649698 3.515710
H125 2.278103 6.646127 11.266276
H126 1.692087 7.856732 11.925229
H127 2.150674 -9.783293 -10.005891
H128 0.803172 -10.244890 -10.708801
