192
1 12.414492 0.000000 0.000000 0.000000 12.414492 0.000000 0.000000 0.000000 12.414492
O1 5.647732 -7.318687 0.901436
O2 5.265899 7.858752 -9.668529
O3 0.824095 -0.430234 -2.966236
O4 -5.847324 10.920229 3.387077
O5 -1.298594 -1.317816 -4.845790
O6 9.941246 -10.385831 4.526143
O7 0.699040 -7.010620 3.439234
O8 -1.766376 -8.442322 7.821507
O9 5.848610 13.375513 16.332139
O10 -3.570182 7.020960 3.043504
O11 2.294798 3.981133 -3.758907
O12 0.194333 -2.719405 3.217238
O13 3.230552 3.451815 -1.358606
O14 -6.919896 -3.386837 5.017994
O15 -2.098999 -5.604428 -16.306980
O16 11.561630 -7.138320 11.418048
O17 -0.477130 -4.356892 -5.392943
O18 -7.875332 11.678427 -4.352017
O19 -4.716384 5.104755 -1.105551
O20 -14.218294 -2.315843 -0.469502
O21 2.799521 -0.929461 -9.597250
O22 5.717748 -7.350908 3.704775
O23 2.143924 3.754276 -10.925225
O24 -0.533540 1.096360 11.668994
O25 3.179843 0.670934 -1.713421
O26 3.311552 -5.929735 0.696903
O27 -3.789510 -6.406781 -6.541308
O28 3.376515 5.726640 -5.423340
O29 -4.981187 -9.226115 5.052742
O30 7.028987 -4.783605 -2.843049
O31 -16.224442 -7.789605 1.480474
O32 3.202590 1.820560 -7.435000
O33 3.295527 -1.678137 5.779994
O34 -1.093159 -4.795626 4.106768
O35 -5.217281 -3.756258 -5.589688
O36 -3.525917 0.129961 3.150205
O37 8.656994 3.314815 -2.860378
O38 2.327000 -4.283343 7.705277
O39 6.853282 -11.812648 8.506571
O40 -11.774417 6.685964 -2.453389
O41 0.019682 3.355550 -2.780983
O42 -10.813423 8.943574 -11.947118
O43 5.620032 2.466035 1.461344
O44 3.308652 1.644010 -4.828062
O45 -4.262438 -2.128527 -1.732215
O46 -2.669365 -4.782287 11.228818
O47 -11.164398 9.261411 -2.568545
O48 5.825979 -6.745917 -4.529154
O49 0.894069 13.690285 4.079871
O50 0.571378 -1.000470 -6.853342
O51 -4.540452 9.149198 1.441787
O52 -3.876886 -1.894281 7.942506
O53 10.551760 -1.316304 -10.535854
O54 -13.300901 4.465745 13.972100
O55 3.044943 4.478512 4.486072
O56 -12.077022 1.937198 1.680333
O57 5.923423 3.295079 -2.407154
O58 -7.919399 -2.895812 9.842298
O59 5.717917 15.323239 -5.237971
O60 9.061011 0.720603 -1.296632
O61 8.118102 1.917901 0.857744
O62 5.841500 -1.664212 -0.171332
O63 -12.617394 16.019817 -7.045350
O64 4.151865 -12.384475 0.643446
H1 4.876510 -6.880637 0.476646
H2 6.345873 -7.271914 0.208916
H3 5.300650 6.960451 -9.571926
H4 6.052223 7.940616 -10.213396
H5 0.030984 0.020143 -2.649305
H6 0.935492 -0.337870 -3.923219
H7 -6.195824 10.359053 4.100866
H8 -5.471051 10.258793 2.743956
H9 -1.028894 -2.265573 -4.720356
H10 -2.332234 -1.385032 -4.949777
H11 10.686017 -9.796666 4.588569
H12 9.119341 -10.018247 4.801943
H13 0.694997 -7.446653 2.578785
H14 1.497773 -7.197572 3.948867
H15 -1.059346 -8.575082 8.567207
H16 -2.101333 -7.506929 7.876083
H17 5.689596 14.026723 15.582291
H18 5.993515 12.507415 15.917116
H19 -3.815829 6.979860 3.962466
H20 -3.744666 6.103585 2.629900
H21 2.483247 4.641506 -4.518988
H22 2.511479 3.058592 -4.060846
H23 -0.404423 -3.444947 3.527511
H24 0.646051 -2.473953 4.027705
H25 2.741859 3.914174 -2.066855
H26 2.779288 3.477664 -0.461929
H27 -6.847338 -3.899943 4.134775
H28 -7.832625 -3.050955 5.163660
H29 -2.514111 -5.085544 -15.611833
H30 -1.484209 -5.072271 -16.812121
H31 10.736120 -6.646369 11.353634
H32 12.354221 -6.491102 11.280208
H33 0.512888 -4.353030 -5.195473
H34 -0.691330 -4.713880 -6.267124
H35 -6.926305 12.055531 -4.199944
H36 -7.951887 11.015290 -3.580209
H37 -4.191743 4.396625 -1.556427
H38 -4.034364 5.532275 -0.430784
H39 -14.206925 -1.745657 0.326471
H40 -13.434753 -2.048781 -0.914445
H41 2.349108 -1.752219 -9.888713
H42 3.134538 -0.473454 -10.409988
H43 6.506897 -7.855101 4.151185
H44 5.812687 -7.658273 2.774053
H45 1.493107 3.033507 -10.721220
H46 2.942362 3.694378 -10.306159
H47 -0.393705 1.754694 10.953814
H48 -1.494892 0.955521 11.771252
H49 2.226607 0.467067 -2.033456
H50 3.229466 1.643753 -1.936430
H51 2.789363 -5.133864 0.680492
H52 2.684775 -6.668404 0.734580
H53 -3.157513 -6.143865 -5.909627
H54 -3.866040 -7.399012 -6.357183
H55 3.186527 5.437911 -6.380844
H56 4.333721 5.460317 -5.215433
H57 -5.510948 -9.130265 5.946267
H58 -5.514727 -9.926499 4.593257
H59 7.182994 -5.525862 -2.297614
H60 6.168815 -4.431878 -2.606160
H61 -15.190475 -7.883645 1.477293
H62 -16.451841 -8.659800 1.154372
H63 2.316367 1.479099 -7.883093
H64 4.082573 1.512965 -7.847805
H65 3.000856 -1.323288 4.957743
H66 3.771719 -0.977175 6.185010
H67 -0.587692 -5.641797 3.693929
H68 -1.998409 -4.810716 3.863003
H69 -5.451230 -4.166329 -4.733751
H70 -5.993340 -3.814831 -6.283852
H71 -3.190624 0.661769 3.930299
H72 -4.232151 -0.434830 3.498106
H73 7.808739 3.620882 -3.240459
H74 9.295290 3.693590 -3.442993
H75 2.769413 -5.143204 7.537453
H76 2.890754 -3.542952 7.352258
H77 6.618616 -11.334283 7.695659
H78 7.411736 -12.568637 8.213137
H79 -11.454027 7.597101 -2.241920
H80 -12.525572 6.698239 -3.066306
H81 0.803727 3.803315 -3.260973
H82 -0.228305 3.962675 -2.033602
H83 -11.617104 8.955424 -11.351844
H84 -11.092506 9.218871 -12.905653
H85 5.499853 3.350967 1.036313
H86 6.611227 2.474505 1.306333
H87 3.530301 0.627542 -4.578213
H88 3.228704 1.769096 -5.812512
H89 -5.144015 -1.922775 -1.322494
H90 -3.537186 -2.165099 -1.051707
H91 -3.591402 -4.526725 11.299341
H92 -2.200750 -3.958539 11.493751
H93 -10.802884 8.937770 -3.416830
H94 -11.647987 10.114266 -2.730164
H95 5.943771 -6.201820 -3.657325
H96 6.406053 -6.244567 -5.217321
H97 0.570499 14.531854 4.650216
H98 0.713061 12.916076 4.695346
H99 1.238822 -1.263942 -6.211050
H100 -0.242754 -0.922391 -6.199732
H101 -4.265681 8.303518 1.929469
H102 -3.827187 9.663221 1.265288
H103 -4.249602 -2.512620 7.317685
H104 -3.840520 -2.238155 8.877369
H105 9.898714 -0.785169 -10.012970
H106 11.271663 -1.515819 -9.963885
H107 -13.066209 3.482714 14.023802
H108 -13.162316 4.761577 12.982832
H109 3.030668 3.411211 4.595607
H110 3.980164 4.637435 4.219084
H111 -11.867832 1.203263 2.349272
H112 -12.104714 1.529362 0.817298
H113 5.111835 3.259897 -1.825217
H114 6.262308 2.391602 -2.507795
H115 -7.660375 -2.769695 10.772463
H116 -8.847146 -3.182233 9.853416
H117 5.641805 15.572742 -4.251432
H118 4.829524 14.900543 -5.358478
H119 8.648377 -0.117326 -1.664519
H120 8.766247 1.503463 -1.898099
H121 8.458030 1.364914 1.563658
H122 8.715717 1.608006 0.112030
H123 6.426977 -2.197881 0.498197
H124 5.163794 -1.066187 0.331870
H125 -13.115278 16.266623 -6.276607
H126 -12.326361 16.811458 -7.543942
H127 3.643857 -12.031110 -0.193907
H128 4.576127 -11.521560 0.937978
