192
1 12.414492 0.000000 0.000000 0.000000 12.414492 0.000000 0.000000 0.000000 12.414492
O1 -7.237726 13.314319 -3.626850
O2 3.359615 -12.815296 7.240559
O3 -7.846014 -2.211682 5.803234
O4 -1.041801 -3.042514 -5.635127
O5 8.527509 -1.535516 -1.376009
O6 -5.128351 6.284963 -1.070894
O7 -10.838412 -1.347760 -1.976320
O8 5.060780 -8.254171 7.592657
O9 -1.263718 4.868097 -8.172793
O10 3.634746 -6.239164 -3.704327
O11 -8.001127 10.151224 11.465675
O12 -6.713162 -3.387919 -10.986581
O13 10.642765 6.870741 11.885362
O14 0.316593 1.625018 2.726385
O15 -3.961116 5.715897 -5.780623
O16 5.326220 -8.283782 -0.540039
O17 -1.611801 10.797650 2.672813
O18 -1.602781 -12.947464 7.017582
O19 4.520443 0.869691 4.403036
O20 13.027892 6.058762 13.302402
O21 -2.384375 -8.986325 6.845718
O22 6.605971 -8.426474 -7.022405
O23 1.264464 -6.799869 -1.788105
O24 2.711816 3.414115 -1.558257
O25 -2.681841 3.461241 1.969136
O26 -8.018507 7.125884 3.135430
O27 10.535492 -4.686030 2.845512
O28 -5.336385 0.172077 -8.341526
O29 -0.411409 5.730497 -3.937185
O30 -0.603644 -0.048992 -7.933555
O31 -6.145255 -7.185372 3.086081
O32 6.389361 0.759565 1.283111
O33 1.604949 -6.059541 7.170718
O34 -3.220018 12.708157 1.088667
O35 5.820595 -4.230443 -2.095396
O36 -4.983187 -3.730428 7.934842
O37 4.126329 -1.556979 2.719690
O38 1.656802 -4.457775 -9.552067
O39 -4.133853 -10.372965 -7.155135
O40 -0.741604 2.061364 12.772497
O41 -0.509798 9.414313 11.447473
O42 -3.973319 -3.288501 0.748060
O43 1.763002 -1.141349 -7.530220
O44 -1.915089 12.932935 -1.665629
O45 -15.528773 2.701921 -2.896087
O46 1.625014 -11.224201 -13.141883
O47 4.634716 2.863806 14.345444
O48 0.348890 0.038014 -3.837484
O49 -7.378921 -5.031118 6.063081
O50 8.066303 0.636659 -4.635245
O51 1.533978 -3.392436 -5.420487
O52 14.616137 3.805306 2.329410
O53 0.892935 2.755498 -4.178301
O54 -11.067593 5.522024 4.556110
O55 0.548838 10.311539 1.566960
O56 -3.172795 -4.393422 -7.001312
O57 -6.043295 3.138588 9.641135
O58 -3.595164 -6.401261 -3.373813
O59 3.235786 2.253298 -6.058770
O60 2.362380 0.183939 1.547862
O61 8.408037 5.796807 1.317524
O62 -15.102842 8.901480 -3.137516
O63 -6.233811 12.296751 -1.116306
O64 -5.108822 -2.589702 -7.125218
H1 -6.457864 13.410515 -4.187107
H2 -7.305055 14.246971 -3.341904
H3 2.800334 -13.344570 7.818855
H4 3.962637 -12.421189 7.944039
H5 -8.194653 -1.458074 6.396383
H6 -7.797682 -3.128389 6.135748
H7 -1.433945 -3.640990 -6.315535
H8 -0.028965 -3.169042 -5.587241
H9 9.169669 -0.897069 -0.996232
H10 8.393557 -2.107702 -0.637418
H11 -5.823683 6.927285 -1.415985
H12 -4.499128 6.137603 -1.803729
H13 -11.420215 -2.154467 -1.937219
H14 -11.371729 -0.970053 -2.794214
H15 4.303301 -8.902549 7.538643
H16 4.640344 -7.365935 7.792116
H17 -1.703216 4.336159 -7.483056
H18 -1.483629 4.407860 -9.043383
H19 4.157524 -5.419338 -3.384588
H20 2.890583 -6.014955 -4.469172
H21 -8.786200 10.522669 10.993138
H22 -7.614067 11.042668 11.565245
H23 -6.807508 -2.552916 -10.493019
H24 -7.208918 -3.150069 -11.835390
H25 11.090184 6.479104 11.093828
H26 11.303600 6.795079 12.580976
H27 -0.133664 1.181823 3.538121
H28 -0.243965 1.630910 1.885209
H29 -4.650610 5.252364 -6.318146
H30 -3.463535 6.435920 -6.219418
H31 5.534253 -8.670008 -1.365360
H32 5.977728 -7.514586 -0.441297
H33 -2.443919 11.190205 2.257474
H34 -0.930578 10.672487 1.911997
H35 -2.506066 -12.730103 7.334780
H36 -1.460386 -13.981036 6.892526
H37 5.436539 0.705858 4.252072
H38 4.186728 1.382998 3.680998
H39 13.486049 5.216217 13.703558
H40 13.201540 5.847628 12.355496
H41 -2.959774 -8.207304 6.957123
H42 -2.226597 -9.465725 7.724128
H43 6.426888 -7.822003 -7.813324
H44 5.805601 -8.400814 -6.346567
H45 1.658662 -7.675923 -1.536572
H46 2.168720 -6.435862 -2.041061
H47 3.567563 3.611338 -1.172980
H48 2.535359 2.449925 -1.369284
H49 -3.245335 2.916347 2.536053
H50 -3.285004 4.219093 1.671346
H51 -7.469107 6.306344 2.993459
H52 -7.516753 7.956658 2.878882
H53 10.563181 -3.670170 2.729403
H54 11.391835 -4.987495 3.171423
H55 -4.816112 0.952754 -7.931998
H56 -5.007027 0.366715 -9.304543
H57 -1.296109 6.134088 -3.748565
H58 0.121870 5.583433 -3.143718
H59 -1.035357 -0.088515 -7.013669
H60 -1.016428 -0.752354 -8.494197
H61 -5.327915 -6.867916 2.524449
H62 -6.518283 -8.004426 2.719392
H63 5.554463 1.236275 1.408366
H64 6.245547 0.467020 0.294796
H65 0.697026 -6.329916 7.566657
H66 1.614842 -6.416437 6.251404
H67 -4.065475 12.982693 1.384625
H68 -2.678381 13.525914 1.228593
H69 6.129006 -3.962865 -3.047278
H70 5.400778 -3.381794 -1.806236
H71 -4.109848 -3.604534 8.494794
H72 -4.777037 -3.113099 7.232844
H73 5.021633 -1.200576 2.794938
H74 3.768006 -1.437003 3.669438
H75 2.640197 -4.547561 -9.398829
H76 1.549451 -5.011718 -10.384095
H77 -3.267116 -10.014623 -6.532391
H78 -4.780688 -9.638160 -7.109376
H79 -1.305672 2.845794 12.937547
H80 0.086821 2.193586 12.218986
H81 -0.135686 9.326123 12.412687
H82 -1.077290 8.618782 11.372838
H83 -3.662794 -4.178850 0.597358
H84 -4.970187 -3.468801 0.874593
H85 0.955582 -0.573926 -7.483001
H86 2.316393 -0.805415 -6.828489
H87 -1.155582 12.850092 -2.295626
H88 -1.449523 13.446583 -0.945438
H89 -14.996906 2.014712 -2.364896
H90 -15.161536 3.517762 -2.565875
H91 1.543450 -12.168152 -13.501913
H92 2.164461 -11.468943 -12.366430
H93 3.673359 3.034089 14.363621
H94 4.992921 3.306641 13.565679
H95 0.731929 0.922681 -4.118285
H96 -0.432267 -0.125859 -4.502145
H97 -6.464993 -5.107916 6.294679
H98 -7.540241 -5.253740 5.102888
H99 8.692668 1.115593 -4.046062
H100 8.096751 1.147358 -5.436978
H101 1.789709 -3.255990 -6.361952
H102 1.752492 -4.381921 -5.262750
H103 13.937358 3.092896 2.534995
H104 14.616915 4.241999 3.206819
H105 1.489311 2.810012 -4.951534
H106 1.376500 3.132183 -3.373663
H107 -11.967297 5.108476 4.425937
H108 -11.206516 6.456529 4.406348
H109 0.930496 9.522275 2.041214
H110 1.225286 11.023020 1.500087
H111 -3.906941 -3.740267 -6.803598
H112 -3.174648 -4.400908 -8.007372
H113 -6.355450 3.766766 8.979310
H114 -5.107601 3.061858 9.399839
H115 -3.143085 -5.574043 -3.565542
H116 -4.009071 -6.618601 -4.261774
H117 3.366996 1.291123 -5.921853
H118 3.757872 2.402771 -6.847396
H119 1.819170 0.741566 2.191381
H120 3.013204 -0.337919 2.083651
H121 9.158908 6.240641 1.659798
H122 8.028008 6.112948 0.363156
H123 -14.300492 9.289828 -3.591225
H124 -15.354611 9.603500 -2.446556
H125 -6.501981 12.690888 -2.008267
H126 -5.377534 11.807617 -1.223063
H127 -4.750744 -1.769383 -7.529190
H128 -6.073519 -2.282553 -6.907424
