192
1 12.414492 0.000000 0.000000 0.000000 12.414492 0.000000 0.000000 0.000000 12.414492
O1 -5.248999 3.349830 3.809337
O2 -5.828503 3.341990 -2.267103
O3 1.814589 9.139071 -4.931627
O4 -4.142567 11.168651 9.405652
O5 14.589425 -7.012796 -3.078162
O6 0.225290 -1.764188 4.620607
O7 7.267984 5.431033 13.061018
O8 -1.234099 -3.752704 6.469412
O9 -2.889978 4.678889 4.881534
O10 6.631893 -3.486183 -6.993060
O11 -3.642694 -3.486110 -1.611155
O12 -6.487587 -1.089589 4.537695
O13 -4.099312 5.367111 -14.854903
O14 -1.035714 -7.229129 -2.606405
O15 -1.261337 -6.636550 0.068285
O16 -8.255077 6.454839 -9.955790
O17 13.022711 -8.745826 0.367596
O18 6.321714 0.299330 -1.845259
O19 4.834527 -7.172787 8.732660
O20 -12.082429 -5.210636 -15.722697
O21 9.728320 7.291356 -4.161701
O22 10.255563 2.547686 -12.320262
O23 3.489843 -10.026876 4.571326
O24 2.445117 5.659192 4.570935
O25 6.727887 -4.582654 -0.124833
O26 -4.026083 -3.439975 -9.324935
O27 0.112375 -4.889779 1.730312
O28 -10.920716 -1.230332 2.264182
O29 6.863188 -3.480792 8.098544
O30 -11.270308 0.175257 -1.103311
O31 -0.487431 0.378984 18.837038
O32 4.819164 0.725116 6.119443
O33 -0.452261 -2.102433 0.992412
O34 8.416096 0.224468 -5.316668
O35 2.617712 -7.297785 -0.479994
O36 -1.139767 2.747157 8.615234
O37 -2.728204 -1.520803 -7.913803
O38 2.522550 -4.718086 -11.960341
O39 -7.453498 -9.891285 2.331481
O40 5.610742 5.281557 -6.442829
O41 2.180984 1.058115 1.127374
O42 4.464710 3.107759 -0.631754
O43 2.962332 -2.262012 -0.657926
O44 3.670137 -4.473006 5.549657
O45 -7.261165 0.058194 1.114573
O46 -13.967070 0.650309 -1.564942
O47 0.104351 11.099065 -3.720965
O48 -6.740390 -4.711216 9.840351
O49 8.117026 12.854286 -9.239114
O50 -8.684758 -2.869958 9.342116
O51 -2.131740 -0.079576 1.575987
O52 -4.402862 2.825736 13.581995
O53 -0.497894 -5.692824 4.601509
O54 -3.283288 -6.250135 -10.090548
O55 -9.467137 1.279350 -2.616406
O56 1.109156 2.449316 -6.649669
O57 3.805336 -2.183195 3.295801
O58 -0.748496 3.451323 -8.601418
O59 6.769507 2.238272 -5.399212
O60 -4.279923 5.318624 6.953168
O61 -0.613770 8.959039 -1.538974
O62 1.698364 2.992359 -4.277133
O63 6.121236 -2.854157 1.699309
O64 4.858396 -0.352612 -3.742435
H1 -5.680767 4.084606 4.316691
H2 -4.743492 3.660418 3.063898
H3 -5.093479 4.024873 -2.269325
H4 -6.466432 3.551752 -1.576133
H5 1.201542 8.430064 -4.601772
H6 2.446232 9.212834 -4.176204
H7 -4.946502 11.696963 9.802503
H8 -3.882264 10.329620 9.965132
H9 15.486100 -6.915377 -3.394511
H10 14.046441 -6.166508 -3.264971
H11 0.261912 -2.404159 5.433474
H12 -0.690561 -1.765752 4.366644
H13 7.168622 4.428975 12.938745
H14 7.983319 5.551037 13.783553
H15 -1.951631 -4.317532 6.970578
H16 -0.906681 -3.276709 7.290696
H17 -2.923519 5.309186 4.134353
H18 -2.242949 3.991073 4.663674
H19 7.160789 -3.548782 -6.212270
H20 5.753574 -3.927645 -6.748991
H21 -4.321056 -3.922621 -0.922019
H22 -3.611151 -4.085028 -2.420434
H23 -6.188503 -1.936447 4.969820
H24 -7.002924 -0.503786 5.187098
H25 -4.305708 5.482676 -13.894597
H26 -3.153902 5.137291 -14.793099
H27 -1.046913 -8.261784 -2.714400
H28 -1.206589 -7.062652 -1.639456
H29 -0.980263 -7.477580 0.529446
H30 -0.749730 -5.989781 0.593327
H31 -7.687650 5.654806 -10.271151
H32 -8.900162 6.232072 -9.277506
H33 13.656565 -8.040148 -0.044029
H34 13.590663 -9.155764 1.018858
H35 5.647428 0.112574 -2.591534
H36 6.808259 1.103649 -2.080045
H37 5.213744 -7.275904 7.812059
H38 5.203436 -8.023823 9.252647
H39 -12.143806 -4.555141 -14.933885
H40 -12.734503 -5.967837 -15.464471
H41 10.418048 6.663455 -3.907268
H42 9.023125 6.747495 -4.602780
H43 10.363215 1.719511 -12.906673
H44 11.136578 2.890351 -12.178144
H45 3.646572 -10.330632 3.664213
H46 2.528047 -9.997232 4.768333
H47 2.607392 4.673248 4.493596
H48 1.535079 5.856030 4.838561
H49 6.853992 -5.554817 0.143146
H50 6.156672 -4.052248 0.578793
H51 -4.533770 -3.674083 -8.528826
H52 -4.611243 -3.443076 -10.112202
H53 -0.222539 -4.934418 2.736648
H54 -0.270247 -3.887503 1.527511
H55 -11.398412 -1.353107 3.174837
H56 -10.163751 -1.810855 2.492725
H57 6.308597 -3.977371 8.708627
H58 7.267930 -2.718852 8.459619
H59 -11.083896 -0.777420 -0.970492
H60 -10.808928 0.574647 -0.237718
H61 -0.267753 -0.362727 18.183807
H62 -0.255196 -0.105922 19.688609
H63 5.646673 1.261358 6.245662
H64 4.346511 1.338357 5.444151
H65 -1.121458 -1.528644 1.421020
H66 0.401410 -1.866736 1.365205
H67 9.203347 0.772687 -5.345953
H68 8.600311 -0.420964 -4.622926
H69 2.445826 -7.317039 -1.539077
H70 2.705892 -6.280625 -0.270339
H71 -1.511902 1.902823 8.867502
H72 -0.204726 2.702959 8.313832
H73 -2.872218 -1.489293 -6.990495
H74 -3.193042 -2.189838 -8.426941
H75 3.133264 -5.104293 -11.195097
H76 1.651459 -4.836693 -11.507743
H77 -6.573151 -9.603346 2.772574
H78 -7.680869 -9.539482 1.455637
H79 5.102197 6.074322 -6.595896
H80 6.559878 5.550528 -6.288892
H81 3.151208 0.943376 1.004237
H82 1.963238 0.266658 1.602090
H83 3.699324 3.720486 -0.593952
H84 4.265659 2.430919 -1.258350
H85 3.805836 -1.957079 -0.243566
H86 2.713394 -3.185844 -0.282211
H87 3.096532 -4.065365 6.201628
H88 3.162681 -5.149036 5.135680
H89 -7.315468 0.847870 1.752253
H90 -6.737727 0.480856 0.395886
H91 -14.519038 -0.119815 -1.457255
H92 -13.034950 0.652018 -1.239916
H93 0.481577 11.547573 -2.936999
H94 0.871113 10.758517 -4.262166
H95 -6.346726 -4.711149 10.737089
H96 -6.724063 -5.602506 9.436975
H97 7.533410 12.018939 -9.061143
H98 7.947362 13.252907 -8.381370
H99 -8.024686 -3.619480 9.488607
H100 -8.986958 -2.537502 10.284765
H101 -2.956939 0.013033 2.107600
H102 -2.135890 0.768673 1.187588
H103 -3.528143 2.864093 13.105829
H104 -4.271265 2.076386 14.151754
H105 -1.133660 -6.446955 4.796436
H106 -0.629208 -5.005962 5.328065
H107 -3.342770 -5.335224 -9.722853
H108 -2.465656 -6.174959 -10.623798
H109 -8.939857 0.525161 -3.009019
H110 -10.144486 0.861474 -2.021479
H111 0.545987 1.645451 -6.487596
H112 1.587706 2.699144 -5.708571
H113 4.440863 -1.613670 3.865591
H114 3.720893 -2.942864 3.884703
H115 -0.285637 3.289338 -7.715678
H116 -1.386036 2.737124 -8.854880
H117 7.529337 1.525851 -5.181195
H118 6.454996 2.227329 -4.460871
H119 -3.782828 5.088851 6.133292
H120 -4.502799 4.389109 7.222334
H121 -1.602957 8.788429 -1.330273
H122 -0.210629 9.394889 -0.729720
H123 2.296746 2.400070 -3.754288
H124 1.883828 3.901304 -3.991360
H125 5.346501 -2.645327 2.323759
H126 6.356018 -1.940471 1.472813
H127 4.766996 -1.348535 -3.723976
H128 4.708822 0.012675 -4.639317
