192
1 12.414492 0.000000 0.000000 0.000000 12.414492 0.000000 0.000000 0.000000 12.414492
O1 -9.598535 -0.036868 1.243203
O2 -8.440233 1.510119 -2.033503
O3 -8.960794 -10.990185 -4.823904
O4 3.116721 -1.654388 -8.010305
O5 3.827109 3.402287 6.165517
O6 3.161390 -1.169797 11.162410
O7 -5.360201 -3.140281 -8.637986
O8 2.273205 -8.646476 -8.550200
O9 -3.620966 9.895102 -4.807032
O10 -0.263836 2.652104 -8.106734
O11 -7.600506 -7.204601 15.529906
O12 0.636443 -4.184731 5.947197
O13 5.700002 -2.240611 -0.021199
O14 -9.190841 -4.051388 8.850858
O15 7.644299 2.907604 -9.024057
O16 1.672644 8.333199 2.002256
O17 0.710326 -11.021748 0.178490
O18 -11.765665 12.923325 3.112837
O19 -9.783359 5.350096 -4.695946
O20 5.951754 -9.220634 1.050734
O21 4.251547 1.986477 2.862904
O22 0.852756 -0.831842 -3.248766
O23 -1.834617 -5.367339 2.466600
O24 -0.993459 8.557165 8.317933
O25 -0.286751 5.724788 4.442186
O26 1.370410 -0.314991 6.593851
O27 13.267289 -5.112116 -14.288769
O28 0.377200 4.345138 -3.502835
O29 2.512876 5.506533 1.676974
O30 -5.410170 1.213414 -0.509639
O31 -8.708764 -8.246211 -0.919693
O32 -4.673225 -1.064501 -6.703695
O33 4.301866 -3.326738 2.568464
O34 3.486358 -3.811214 6.003480
O35 0.332688 1.745277 -2.745985
O36 -3.645350 -3.550139 1.843534
O37 -6.859726 7.108332 -7.200541
O38 11.516011 4.878441 0.969652
O39 -3.082370 2.514973 0.675505
O40 1.113363 3.890366 -0.645524
O41 4.810946 12.540590 5.607991
O42 -1.211311 -0.526089 0.106825
O43 -0.741898 -2.196579 -7.790254
O44 6.571571 3.153095 -6.488736
O45 -0.208111 -3.104262 0.036514
O46 -1.390533 12.313094 6.239786
O47 6.190373 -0.085804 9.634574
O48 -3.939062 -7.902107 -0.714898
O49 -2.166211 6.670602 -1.274564
O50 8.919698 -1.021692 -2.275703
O51 -7.493934 -7.032139 -2.926248
O52 9.752856 -1.215525 -10.324762
O53 -6.472936 7.884400 -2.755022
O54 6.671403 -6.663364 1.117868
O55 7.160909 -4.418409 -0.361314
O56 -3.226338 0.700526 -7.932994
O57 -2.283283 0.978506 -3.850322
O58 7.539875 -4.827730 7.188205
O59 -1.575365 3.793929 -5.957412
O60 7.538676 1.640723 -4.592928
O61 6.944984 -0.615808 1.388894
O62 7.771014 4.064309 -3.240269
O63 -2.921085 -6.117005 8.270056
O64 -3.975421 -7.057188 3.183767
H1 -8.719140 0.370714 1.498228
H2 -9.548716 -0.763450 0.497487
H3 -7.460180 1.389813 -2.149365
H4 -8.526780 2.440943 -1.709640
H5 -8.363453 -11.554675 -5.406885
H6 -8.772697 -11.092899 -3.848198
H7 2.416942 -1.085961 -7.549980
H8 3.407753 -2.261106 -7.256525
H9 3.118669 3.288796 5.541856
H10 3.531143 2.763489 6.882163
H11 4.103662 -1.523516 11.118957
H12 3.368589 -0.289923 10.915221
H13 -4.708239 -3.314690 -9.366520
H14 -6.292255 -3.329409 -9.013813
H15 1.293602 -8.748563 -8.458632
H16 2.466221 -7.958941 -9.222909
H17 -4.149470 9.046410 -4.866028
H18 -2.691247 9.654392 -4.770492
H19 -0.408642 2.700056 -7.117956
H20 0.258815 1.853893 -8.358649
H21 -7.005074 -7.062858 14.790059
H22 -7.458843 -8.086485 15.940686
H23 0.083950 -3.542674 5.421104
H24 1.559463 -4.036576 5.684002
H25 6.211251 -1.554513 0.581744
H26 5.194071 -2.684011 0.727425
H27 -9.413290 -3.152327 9.111302
H28 -8.232854 -4.009433 9.119789
H29 6.948888 2.918989 -9.745092
H30 8.189138 3.770025 -9.043244
H31 1.513497 8.466865 2.981432
H32 1.119736 8.947011 1.481018
H33 1.040305 -10.132976 0.001550
H34 1.509286 -11.442603 0.680962
H35 -12.295345 13.125038 2.357163
H36 -10.905675 12.701229 2.754460
H37 -9.262979 4.683106 -5.192127
H38 -9.877437 6.125069 -5.303016
H39 5.349070 -9.724492 1.660894
H40 6.195930 -9.837780 0.326960
H41 3.380851 2.443911 3.082637
H42 4.636099 1.841621 3.755058
H43 1.554514 -1.143342 -2.652441
H44 0.580847 0.038466 -2.956808
H45 -1.315806 -5.797602 3.197530
H46 -1.527896 -5.889115 1.663224
H47 -1.432703 7.667908 8.172914
H48 -0.102116 8.553090 7.800865
H49 -0.591895 5.200141 5.249940
H50 -0.132854 6.581409 4.894962
H51 1.243591 -0.545477 7.614445
H52 2.089057 0.406459 6.664075
H53 14.216131 -4.908455 -14.558218
H54 12.815305 -4.927940 -15.145024
H55 1.193474 4.790856 -3.849128
H56 0.675380 3.438647 -3.190213
H57 3.402675 5.584313 1.905620
H58 2.251319 6.464170 1.605673
H59 -5.487128 0.776875 -1.428325
H60 -4.500194 1.431698 -0.420445
H61 -8.369145 -8.287484 -0.028159
H62 -9.704373 -8.144967 -0.798500
H63 -5.042206 -1.716651 -7.368204
H64 -4.339423 -1.612867 -5.922279
H65 3.566430 -3.939090 2.325128
H66 3.964053 -2.578531 3.110315
H67 4.206653 -4.420283 5.558460
H68 3.395570 -3.855718 7.014817
H69 -0.620515 1.740435 -3.029021
H70 0.337674 1.807717 -1.761899
H71 -3.108453 -2.695936 1.997655
H72 -3.017562 -4.190463 2.244353
H73 -7.032894 6.333150 -7.831610
H74 -6.169734 7.683789 -7.597626
H75 11.803637 4.702691 1.890041
H76 10.656962 4.367273 0.976023
H77 -3.502222 3.373692 0.274874
H78 -3.176945 2.432860 1.656722
H79 0.526264 4.458216 -0.003968
H80 0.908766 4.070746 -1.557602
H81 5.613943 12.074965 5.956641
H82 4.268253 11.873898 5.105355
H83 -0.453753 0.030660 0.023638
H84 -0.758718 -1.391554 -0.078573
H85 -1.518680 -2.187880 -8.413898
H86 -1.154595 -1.675246 -7.096615
H87 6.786240 3.177300 -7.504116
H88 5.677115 3.584832 -6.357225
H89 -0.899881 -3.647835 0.456708
H90 0.015394 -3.655039 -0.721278
H91 -0.407930 12.508652 6.158988
H92 -1.866453 12.899667 5.598575
H93 6.962439 -0.725536 9.918240
H94 6.532852 0.436638 8.876409
H95 -3.412319 -7.056544 -0.821456
H96 -4.254750 -8.239824 -1.665348
H97 -1.272646 6.359610 -1.133058
H98 -2.330368 6.852926 -2.236027
H99 9.654225 -1.117568 -1.605843
H100 9.109544 -1.626012 -3.050370
H101 -8.216909 -7.034169 -3.617446
H102 -7.807396 -7.620204 -2.123407
H103 9.766682 -0.672809 -9.494145
H104 10.476434 -0.842370 -10.924831
H105 -6.918132 6.964315 -2.795075
H106 -5.987327 7.955380 -1.812518
H107 6.707884 -5.829107 0.587615
H108 6.756010 -7.349304 0.413294
H109 8.071012 -4.230121 -0.069804
H110 6.612980 -3.464388 -0.325740
H111 -3.795281 0.089456 -7.402144
H112 -3.639574 1.489361 -8.296404
H113 -1.935385 0.616944 -4.674048
H114 -2.651646 0.255492 -3.288132
H115 6.870053 -4.621134 7.933411
H116 6.863576 -5.101605 6.477528
H117 -0.997329 3.806838 -5.172032
H118 -2.223434 4.500119 -5.748299
H119 8.506311 1.380752 -4.745026
H120 7.204814 2.191387 -5.358557
H121 7.942946 -0.730600 1.363597
H122 6.784526 0.200739 0.904963
H123 6.897895 4.511828 -3.315204
H124 7.582978 3.169225 -3.811412
H125 -3.398030 -6.929807 8.599861
H126 -3.503600 -5.657404 7.685618
H127 -4.613337 -7.136127 2.465897
H128 -3.209954 -6.528038 2.807099
