192
1 12.414492 0.000000 0.000000 0.000000 12.414492 0.000000 0.000000 0.000000 12.414492
O1 -7.687263 -4.434888 -2.961108
O2 -0.137143 -2.615131 3.724776
O3 -1.962789 1.646417 5.367622
O4 8.485772 -8.630764 -7.449491
O5 -3.828534 -8.030551 -0.651197
O6 3.253815 21.261664 12.836873
O7 -9.277477 -6.613328 -8.929350
O8 2.250508 14.486664 10.483987
O9 0.574571 -0.179039 -8.340182
O10 6.032987 1.665764 8.079136
O11 -5.090997 -12.796277 0.335754
O12 -0.788008 10.772937 -2.559485
O13 -7.649318 -6.392958 0.841533
O14 -0.180323 -8.343889 -5.453863
O15 11.712223 9.128471 12.356481
O16 1.274984 -5.936095 9.281326
O17 -0.501669 6.371003 1.200342
O18 8.460904 -1.320043 7.989770
O19 8.673460 -0.243666 5.665523
O20 5.896016 -3.187571 -11.086283
O21 10.012747 -12.066385 -15.514583
O22 -13.706897 -1.053183 1.823221
O23 -1.653016 -4.404676 5.698100
O24 -3.837216 -0.917313 -9.541021
O25 -0.028302 -10.293294 -13.212093
O26 -4.688238 2.165956 2.250070
O27 -1.892941 1.917411 1.720958
O28 -0.874264 16.679685 15.260321
O29 -5.795709 8.560117 -1.121909
O30 5.146657 2.516800 5.933117
O31 -2.464291 5.986096 -8.372075
O32 7.167330 4.946873 -10.838899
O33 5.517326 8.032739 4.938938
O34 -8.095092 3.326327 -0.450113
O35 8.133995 7.400198 -10.232682
O36 5.634186 -0.898368 -3.894077
O37 -4.146299 -3.233442 4.400611
O38 8.774109 8.582032 -5.177787
O39 4.643904 -1.886252 -6.395561
O40 1.127443 0.350778 1.336691
O41 1.181244 -0.719808 -3.948792
O42 1.295111 -4.730722 2.745970
O43 -7.304249 13.462988 1.305896
O44 -6.518435 4.629436 4.137720
O45 -7.884750 -12.033325 4.143688
O46 9.300476 -4.522639 -0.224201
O47 -0.281683 13.856906 7.836744
O48 3.280401 -0.282284 -2.329701
O49 -12.481493 4.907909 -1.237122
O50 2.067327 1.735517 4.606656
O51 -3.546256 1.885719 -1.124217
O52 14.435320 -14.977619 6.623695
O53 -5.838126 -5.401496 -4.447812
O54 3.894163 -7.108657 8.868005
O55 -8.966571 -0.902697 0.404394
O56 1.770454 15.998442 2.764473
O57 -8.722270 -6.775931 6.158756
O58 2.213493 -3.362840 -2.227997
O59 2.113897 -9.090330 -4.193060
O60 -4.161021 -9.290551 -4.550971
O61 -1.989227 -7.682025 -16.011279
O62 -3.403024 6.747627 9.843265
O63 0.714839 -5.446259 6.727588
O64 -6.559013 -8.572398 -2.578835
H1 -8.517486 -3.845145 -3.009359
H2 -7.111562 -4.289235 -2.177241
H3 0.512628 -1.944242 3.973712
H4 0.322273 -3.378567 3.321682
H5 -2.450509 2.436903 4.972262
H6 -2.676416 0.885565 5.506691
H7 8.612624 -8.579288 -6.461452
H8 9.043399 -7.947069 -7.872666
H9 -3.637114 -8.872623 -1.119660
H10 -3.357879 -7.223101 -1.000435
H11 2.595753 21.388027 12.132563
H12 2.634620 21.047295 13.557343
H13 -9.117471 -6.630131 -7.979090
H14 -8.494963 -6.505940 -9.426629
H15 1.303991 14.523728 10.646144
H16 2.250171 14.850439 9.605904
H17 1.077844 0.622341 -8.049950
H18 -0.349045 0.133220 -8.163608
H19 5.789133 2.136046 7.215266
H20 5.786749 2.318589 8.758679
H21 -4.559500 -13.048118 1.100251
H22 -5.360821 -13.668827 -0.129810
H23 -0.133655 11.122004 -3.267882
H24 -1.057777 9.890086 -2.678035
H25 -7.934251 -7.340891 0.709350
H26 -7.622140 -5.927872 0.003431
H27 -0.802489 -8.796893 -6.048850
H28 -0.771804 -8.163114 -4.676425
H29 11.564181 9.951038 12.816537
H30 11.939866 8.479826 12.961210
H31 0.881172 -5.881312 8.356078
H32 2.213915 -6.096998 9.052939
H33 -0.472925 5.612757 1.834490
H34 -0.082253 5.981132 0.415214
H35 7.447368 -1.064206 8.386084
H36 9.165194 -0.859512 8.513240
H37 8.913328 -0.808493 4.915432
H38 8.538945 -0.852947 6.497640
H39 6.342752 -3.623281 -10.334448
H40 5.067805 -3.569405 -11.056374
H41 10.716934 -11.472865 -15.976517
H42 10.595179 -12.699857 -15.002159
H43 -13.328318 -1.547327 2.573881
H44 -12.929872 -0.406522 1.515230
H45 -1.548487 -3.608300 5.102918
H46 -2.326785 -4.138614 6.338960
H47 -2.898303 -0.878052 -9.858044
H48 -3.836126 -1.755066 -9.004711
H49 0.131902 -10.854221 -12.396021
H50 -1.023548 -10.380454 -13.416430
H51 -4.832973 1.867082 3.184582
H52 -4.831444 3.110019 2.262824
H53 -1.790116 1.196455 2.343321
H54 -2.898052 1.779629 1.612811
H55 -1.402428 17.511081 15.557318
H56 -1.469913 15.997046 15.030422
H57 -4.854863 8.257376 -0.972459
H58 -6.194132 8.617516 -0.209547
H59 5.574296 3.042775 5.245084
H60 5.071140 1.653603 5.448447
H61 -2.855673 6.654665 -8.957048
H62 -2.241868 6.485844 -7.634064
H63 7.901345 4.876700 -11.424151
H64 6.472642 5.308916 -11.481086
H65 6.537164 8.110056 4.968052
H66 5.333015 7.284438 5.577520
H67 -7.772635 2.517112 0.077771
H68 -9.023714 3.123513 -0.749765
H69 8.576662 7.580287 -11.036780
H70 7.570427 6.586418 -10.254671
H71 5.808584 0.068385 -4.067674
H72 5.216390 -1.246310 -4.814285
H73 -4.054192 -3.898567 3.708913
H74 -3.838052 -3.638020 5.229766
H75 8.653780 9.547606 -4.798470
H76 7.850648 8.151660 -4.904674
H77 4.968913 -2.689698 -6.842929
H78 4.864137 -1.169405 -7.096279
H79 1.115005 0.239436 2.322273
H80 1.929619 -0.094812 1.007947
H81 2.004346 -0.624233 -3.370622
H82 1.410012 -1.287667 -4.772558
H83 0.712345 -5.205233 2.129101
H84 2.038892 -5.341900 3.147638
H85 -7.935310 12.711531 1.073179
H86 -6.411329 12.989361 1.095975
H87 -6.383972 4.441745 3.143356
H88 -5.578120 4.509063 4.526673
H89 -8.723739 -11.508765 4.008356
H90 -7.361609 -11.867032 3.312251
H91 9.480998 -4.912272 -1.060774
H92 10.116019 -3.885491 -0.062428
H93 0.237283 12.923103 7.943476
H94 -0.570458 13.847034 6.897431
H95 4.243705 -0.450708 -2.735670
H96 3.040716 0.667443 -2.348185
H97 -12.105672 4.070155 -0.944002
H98 -11.893822 5.266729 -2.024079
H99 1.863213 2.500951 3.919640
H100 2.156276 2.019031 5.572462
H101 -3.887316 1.234054 -0.493132
H102 -3.303387 1.265442 -1.910574
H103 14.908023 -14.744909 5.808123
H104 14.300982 -15.890021 6.402363
H105 -6.407451 -6.108833 -4.907766
H106 -6.623073 -4.926363 -4.009030
H107 4.728685 -7.660870 9.115689
H108 4.159177 -6.166375 9.032556
H109 -9.124589 -0.564598 -0.556945
H110 -9.187471 -1.825776 0.479820
H111 2.143596 16.887537 3.004759
H112 0.788145 16.177344 2.693239
H113 -8.332119 -7.666419 5.946589
H114 -8.926962 -6.806387 7.122451
H115 1.510884 -4.001408 -2.223863
H116 1.761608 -2.537580 -1.958561
H117 2.611872 -8.256111 -4.317533
H118 1.320756 -8.927419 -4.764439
H119 -3.442738 -9.893894 -4.795197
H120 -4.986673 -9.824288 -4.321425
H121 -1.549989 -7.925613 -15.157378
H122 -2.901076 -8.079876 -15.859673
H123 -4.292587 6.757101 9.476773
H124 -2.894699 6.371727 9.111087
H125 1.117347 -6.048007 6.058514
H126 -0.204967 -5.270693 6.415126
H127 -5.631099 -8.349814 -2.306099
H128 -7.046184 -8.658498 -1.674556
