192
1 12.414492 0.000000 0.000000 0.000000 12.414492 0.000000 0.000000 0.000000 12.414492
O1 -5.046791 -4.647623 0.716114
O2 0.995091 -1.310034 2.310175
O3 -3.534651 0.585476 2.610900
O4 9.153373 -6.359667 -4.875636
O5 0.603861 -8.157595 4.102225
O6 1.948157 16.089479 11.345631
O7 -10.360725 -4.279121 -9.331379
O8 3.635743 11.449485 8.811373
O9 1.434590 2.827355 -5.008154
O10 1.358188 -1.464794 7.714015
O11 -3.382201 -12.169162 -2.650763
O12 1.346456 8.210096 -1.053475
O13 -7.381006 -8.515115 2.798317
O14 -0.789744 -5.154959 -5.153409
O15 11.156937 6.126515 11.093879
O16 2.576388 -5.956458 9.063793
O17 -0.861452 4.710706 1.247597
O18 5.079039 -1.915557 10.772494
O19 5.224186 -0.094302 4.560773
O20 5.733610 -2.476974 -6.284290
O21 1.455787 -9.703696 -10.962129
O22 -14.181057 -5.566018 2.439804
O23 -4.488860 -0.781386 4.901300
O24 -5.057930 -5.128365 -8.549717
O25 -1.650715 -8.255639 -7.283104
O26 -1.966205 1.639658 -0.802290
O27 2.817812 5.382672 2.629756
O28 7.032504 12.351675 12.928002
O29 -5.463890 4.035182 0.567347
O30 5.672149 6.724649 11.231690
O31 -6.607139 4.402742 -7.037008
O32 9.478911 2.864708 -11.195644
O33 4.741705 8.378000 4.051318
O34 -5.584090 4.379609 -1.982090
O35 3.678072 6.370147 -6.854883
O36 1.778139 0.733096 -6.993618
O37 -0.708194 0.662470 3.288276
O38 8.478063 8.734571 -4.586227
O39 5.623355 1.970080 -6.135698
O40 4.480315 1.048106 0.269312
O41 4.016916 -1.714302 2.672221
O42 2.826419 -6.221686 -0.100115
O43 -6.519966 9.897703 0.821808
O44 -8.065602 2.788414 -1.727293
O45 -3.970598 -7.298551 5.295240
O46 10.099616 -2.350972 -2.655924
O47 0.161105 9.041090 9.127013
O48 0.099432 1.043011 -3.665122
O49 -13.442926 3.640613 -2.404267
O50 3.690317 1.721987 3.133785
O51 -5.885863 0.344206 -1.939158
O52 12.458608 -12.504571 -1.221439
O53 -3.415011 -3.362261 -7.233876
O54 3.453181 -4.094988 7.430884
O55 -6.394033 -3.864326 -3.188735
O56 -0.534142 20.666732 4.531444
O57 -11.144543 -6.928223 6.641474
O58 0.282647 -3.856937 1.315674
O59 4.013785 -10.826499 -4.201737
O60 -4.339620 -11.677563 -5.230924
O61 -2.535717 -3.867559 -12.584557
O62 -1.941342 1.638039 6.430448
O63 1.758548 -1.972005 5.088297
O64 -3.446942 -8.705599 -3.791214
H1 -5.219870 -5.403286 1.309304
H2 -5.692498 -3.962756 0.947461
H3 0.656669 -1.882618 1.633043
H4 1.970528 -1.270536 2.154084
H5 -2.618659 0.613253 2.856101
H6 -3.954666 0.247745 3.412049
H7 8.968863 -6.962017 -4.082375
H8 9.000381 -6.805454 -5.745961
H9 1.034750 -9.060122 4.034135
H10 0.702900 -7.831848 5.015353
H11 1.947707 15.637460 12.182400
H12 2.892310 15.880467 10.960766
H13 -10.173369 -5.263871 -9.424767
H14 -9.539215 -3.939101 -8.869019
H15 3.777603 10.965160 9.673660
H16 2.708877 11.319010 8.474477
H17 2.407097 2.646864 -4.796817
H18 1.211464 3.746827 -5.216679
H19 0.970203 -2.290196 8.149386
H20 1.296582 -1.634168 6.745438
H21 -3.001383 -13.143975 -2.564950
H22 -2.891738 -11.529372 -1.972344
H23 2.197966 7.649019 -0.878303
H24 1.010775 8.454393 -0.170659
H25 -7.839869 -9.509456 2.843473
H26 -8.149192 -7.946169 2.668024
H27 -0.580907 -4.557899 -4.291979
H28 -1.716873 -5.692543 -5.020045
H29 10.931659 5.430294 10.385692
H30 11.895966 6.636056 10.656200
H31 2.028735 -6.418697 8.368751
H32 2.100106 -6.058305 9.904471
H33 -1.112189 5.326426 1.912987
H34 -0.992283 5.122488 0.365022
H35 5.326005 -2.016030 11.723071
H36 5.508497 -2.647432 10.306861
H37 6.197241 -0.392383 4.442566
H38 5.311496 0.760340 5.151596
H39 5.330498 -1.602916 -6.410680
H40 4.904288 -2.828329 -5.903573
H41 1.022727 -10.605924 -10.762775
H42 0.640992 -9.206509 -10.906090
H43 -14.205062 -5.394369 3.400481
H44 -15.058338 -5.278699 2.022556
H45 -4.136806 -0.447324 5.740892
H46 -4.115670 -1.666965 4.890244
H47 -4.537540 -4.417764 -8.080216
H48 -6.010303 -4.936045 -8.509906
H49 -1.653632 -9.099602 -6.738858
H50 -0.982207 -8.532156 -7.918673
H51 -1.243526 0.980069 -0.600936
H52 -2.235782 2.126948 0.082888
H53 2.647907 5.585268 1.661405
H54 2.252662 4.694149 3.026734
H55 7.854250 12.762638 13.254103
H56 6.966432 12.624613 11.937677
H57 -6.028900 4.032842 1.421124
H58 -4.539363 4.101622 0.829692
H59 6.359717 6.996736 11.882794
H60 6.119195 5.998043 10.756433
H61 -5.684108 4.608336 -7.067625
H62 -6.850579 4.152059 -8.010056
H63 9.253615 2.164532 -10.482776
H64 10.299575 3.392121 -10.979666
H65 5.135053 9.011006 4.658026
H66 4.282717 7.604131 4.568103
H67 -5.562479 3.959960 -1.021623
H68 -4.891971 4.029979 -2.620284
H69 4.388519 5.677290 -6.957400
H70 3.964965 7.060989 -6.173208
H71 1.574238 1.000276 -6.086548
H72 2.565309 1.248626 -7.343355
H73 -0.354995 0.753145 4.204613
H74 -0.287538 -0.172403 2.822077
H75 7.487395 8.821828 -4.223402
H76 8.744194 7.782466 -4.572951
H77 5.671405 2.916061 -6.464486
H78 5.005294 1.937979 -5.344166
H79 3.965356 0.405224 -0.299594
H80 5.447056 0.690659 0.315970
H81 4.379342 -1.002853 3.198984
H82 3.962866 -2.537222 3.277092
H83 2.493715 -7.145387 -0.528096
H84 3.725615 -6.151445 -0.553945
H85 -7.266588 9.983953 1.477437
H86 -6.018925 10.750697 0.730099
H87 -7.792073 2.072220 -1.055408
H88 -7.302923 3.331858 -1.872663
H89 -3.031236 -7.567565 4.946897
H90 -4.426060 -6.658232 4.550354
H91 9.992984 -2.571238 -1.683731
H92 9.449607 -2.839407 -3.261425
H93 0.625071 8.691502 9.961197
H94 -0.770037 9.446753 9.340844
H95 0.717941 1.745935 -4.022627
H96 0.377402 0.075597 -4.016989
H97 -13.892803 2.928726 -1.826609
H98 -12.492225 3.399758 -2.595472
H99 3.767854 1.425000 2.205920
H100 4.176000 0.925072 3.511520
H101 -4.902675 0.228811 -2.390903
H102 -6.509037 -0.420205 -2.186796
H103 12.634899 -12.259542 -2.183700
H104 12.875125 -13.352809 -1.119598
H105 -3.358494 -3.393704 -6.229354
H106 -2.467576 -3.157914 -7.521616
H107 2.908620 -3.245655 7.149633
H108 3.109351 -4.428090 8.267546
H109 -6.479057 -4.631638 -2.607439
H110 -7.207289 -3.925108 -3.820406
H111 0.379672 20.512080 4.223792
H112 -0.621582 20.314291 5.468881
H113 -11.965014 -6.211474 6.854083
H114 -10.383228 -6.513830 6.247816
H115 -0.271198 -4.441222 1.827950
H116 1.040386 -3.748246 1.926039
H117 3.940592 -11.840884 -4.062535
H118 4.277935 -10.398601 -3.337921
H119 -4.345148 -11.901956 -4.265775
H120 -5.085949 -11.139113 -5.431152
H121 -2.220220 -4.760115 -12.879197
H122 -3.499012 -4.077028 -12.291353
H123 -1.308260 1.652806 7.168179
H124 -2.706776 1.114205 6.779529
H125 1.893647 -1.001923 5.228482
H126 1.168880 -1.939599 4.296193
H127 -2.425883 -8.893207 -3.626053
H128 -3.727141 -9.028006 -4.659005
