192
1 12.414492 0.000000 0.000000 0.000000 12.414492 0.000000 0.000000 0.000000 12.414492
O1 -0.289920 -12.543809 -3.927360
O2 -1.638492 9.321927 -7.895072
O3 -8.881067 7.833818 14.474291
O4 -5.341514 4.711336 -3.375702
O5 -11.010477 2.271035 1.077939
O6 -0.456723 11.072701 -6.261106
O7 -3.663341 -1.697053 6.364611
O8 -4.500748 -3.643602 10.628085
O9 4.383234 3.192116 -8.471227
O10 4.877828 3.414061 -2.705305
O11 -7.841046 5.763042 3.301106
O12 8.985892 5.374075 -13.943512
O13 3.261867 5.302792 -3.960790
O14 6.687828 -7.027712 1.363993
O15 0.956186 -6.240828 2.968794
O16 5.857359 -5.095213 -2.735745
O17 16.913841 0.938490 14.396659
O18 -2.419067 -9.489121 -0.470959
O19 -13.420711 4.680695 -5.214391
O20 -4.016077 -8.152009 15.704578
O21 -2.004982 -10.276341 -5.823194
O22 0.241407 4.033155 -2.161732
O23 1.733485 1.845381 3.976213
O24 1.051624 1.989531 8.882888
O25 2.816799 12.503730 11.760693
O26 -6.193205 6.804392 -7.200768
O27 10.410704 -4.974331 6.705242
O28 -4.706747 7.897345 0.805160
O29 -1.660970 3.855219 2.138986
O30 -9.333722 -20.159802 0.552147
O31 7.933709 -9.330409 -5.804160
O32 -4.584060 -11.257430 -0.065155
O33 -7.519270 -1.392499 5.365026
O34 -0.199108 -4.150488 -1.053808
O35 -5.642007 -2.850074 -7.968314
O36 -0.013717 3.994853 4.442712
O37 13.917301 -5.913341 -14.701011
O38 7.514434 14.136539 2.858786
O39 -3.055981 1.232103 -3.482693
O40 10.635632 11.243131 1.698638
O41 1.306449 -3.153558 3.678475
O42 -2.186963 -4.059726 2.100311
O43 -7.338208 -14.096399 -3.575996
O44 3.247923 0.583507 6.401312
O45 4.596332 -5.034696 7.192507
O46 2.119806 -8.782927 -5.713394
O47 -0.649619 0.849871 0.207642
O48 2.933055 -3.148078 6.131590
O49 1.486786 9.369433 -4.063650
O50 -0.980392 18.536870 0.944186
O51 8.687322 5.541263 -6.886952
O52 -1.352661 0.470552 4.274897
O53 -16.520143 -0.871681 -9.038950
O54 -5.224118 -0.210764 -4.230207
O55 9.852983 -4.788709 -15.369421
O56 -7.058068 -1.243492 -12.211033
O57 -11.791185 -0.674304 2.742225
O58 -6.260489 3.177552 12.079273
O59 5.591777 -3.110847 -10.400830
O60 7.399973 -1.076522 10.850779
O61 3.800858 6.880996 -0.709563
O62 -8.595030 0.922716 -3.246935
O63 -11.507017 -1.418321 10.848742
O64 5.929242 -11.053522 -7.219494
H1 -1.221673 -12.385850 -3.789217
H2 -0.187001 -13.055067 -4.777969
H3 -1.866599 8.734912 -8.699838
H4 -1.740537 8.684258 -7.129775
H5 -9.462791 8.514401 15.017277
H6 -8.630338 7.063201 15.087638
H7 -5.873939 5.650402 -3.178871
H8 -4.642510 4.746870 -2.647330
H9 -10.392342 1.569310 0.739916
H10 -11.894799 1.922976 0.896929
H11 -0.599690 11.770104 -7.002209
H12 -0.703520 10.205299 -6.678643
H13 -3.588532 -2.138619 5.476946
H14 -2.751999 -1.439780 6.639781
H15 -5.312876 -3.999572 10.125340
H16 -4.596437 -3.964735 11.680605
H17 3.448527 2.934915 -8.311214
H18 4.968917 2.639039 -7.865154
H19 4.217157 3.993336 -3.125954
H20 5.717610 3.810756 -3.028704
H21 -8.106635 4.976105 3.868598
H22 -7.352292 5.526497 2.518673
H23 9.376495 4.580947 -13.412765
H24 9.505002 6.220817 -14.104077
H25 3.788141 6.023697 -4.374857
H26 2.487792 5.757208 -3.616842
H27 7.029223 -6.132172 1.042132
H28 6.313966 -7.405347 0.538784
H29 0.975653 -5.422525 3.502777
H30 0.303181 -6.042580 2.142078
H31 5.074431 -5.307267 -2.086657
H32 5.386633 -4.760773 -3.575339
H33 16.752718 1.867745 14.580374
H34 16.305416 0.358373 14.883479
H35 -3.159924 -10.188372 -0.312190
H36 -2.284210 -9.096888 0.370348
H37 -13.450907 4.411879 -4.234770
H38 -14.037906 5.439497 -5.235838
H39 -3.892101 -7.471150 16.426109
H40 -4.566207 -7.825956 14.929160
H41 -1.776268 -9.376010 -5.584851
H42 -2.412511 -10.582777 -4.944694
H43 -0.590746 3.801700 -1.736520
H44 0.501955 3.239279 -2.788597
H45 1.115168 2.579930 4.081295
H46 1.729166 1.715258 3.024289
H47 0.468808 1.160780 8.710968
H48 1.121000 2.506276 7.988187
H49 3.703002 12.123070 12.011182
H50 3.046998 13.061703 10.972442
H51 -6.658526 6.421201 -7.988780
H52 -5.633063 7.618378 -7.486066
H53 9.711510 -5.461974 6.237379
H54 9.991464 -4.828720 7.607994
H55 -5.515448 8.354466 1.139613
H56 -3.942937 8.176312 1.376065
H57 -0.974323 3.580328 2.741752
H58 -2.455703 4.041453 2.725686
H59 -10.121663 -20.765490 0.619150
H60 -9.628595 -19.600488 1.349449
H61 7.954155 -9.080579 -4.844471
H62 8.803623 -9.771719 -6.019762
H63 -4.392558 -12.079865 -0.665615
H64 -5.258220 -10.623477 -0.579422
H65 -8.523549 -1.557848 5.593829
H66 -7.233930 -0.527912 5.637368
H67 0.493022 -4.776599 -1.527072
H68 0.256337 -3.283796 -0.884248
H69 -6.451898 -2.297530 -7.563544
H70 -5.803665 -2.858591 -9.000554
H71 0.320902 4.831418 4.039569
H72 0.094682 4.183710 5.374649
H73 13.554019 -6.825994 -14.513446
H74 14.736607 -6.037224 -14.168946
H75 8.045994 14.937764 3.158567
H76 7.783728 13.911203 1.965047
H77 -3.430792 1.828731 -2.702115
H78 -3.980591 0.725510 -3.562178
H79 9.720549 11.214512 2.110586
H80 10.610247 11.924032 0.952381
H81 1.262630 -2.218147 3.286024
H82 0.422397 -3.363571 4.051017
H83 -1.791019 -3.167000 1.768823
H84 -1.585789 -4.740115 1.687189
H85 -7.731935 -14.557493 -4.359752
H86 -8.138138 -13.606633 -3.321450
H87 3.222130 0.945667 7.306755
H88 2.387879 0.845614 6.021891
H89 5.164669 -5.385019 6.489563
H90 3.976815 -4.393909 6.787723
H91 2.350905 -8.065097 -5.018734
H92 3.004329 -9.133315 -5.874751
H93 -0.195454 0.189053 -0.357147
H94 -1.135536 1.421266 -0.378571
H95 2.427615 -2.930767 7.071275
H96 2.276022 -3.084210 5.386086
H97 1.299267 9.801015 -3.173819
H98 1.302560 8.412255 -3.891038
H99 -1.349007 17.676918 1.154947
H100 -1.126328 18.792689 0.011544
H101 8.243947 4.830354 -6.299027
H102 7.843519 6.069063 -7.045373
H103 -2.254081 0.110025 4.094854
H104 -1.506054 1.218716 4.882007
H105 -16.937055 0.036484 -9.217949
H106 -17.143719 -1.373221 -8.420529
H107 -4.658126 -0.613161 -4.974243
H108 -6.053378 -0.681542 -4.123408
H109 10.727880 -4.432261 -15.192418
H110 9.099182 -4.197824 -14.928984
H111 -7.037087 -0.298062 -11.830291
H112 -6.362021 -1.319497 -12.867298
H113 -12.736637 -0.860643 2.516244
H114 -11.686474 0.039586 3.434832
H115 -6.497186 2.825315 12.930526
H116 -6.922145 3.134598 11.395277
H117 4.773825 -3.624534 -10.347608
H118 5.283413 -2.371073 -11.001167
H119 7.228186 -0.804305 9.891239
H120 7.597629 -2.060345 10.685424
H121 3.551780 7.426552 0.046548
H122 3.533811 5.994883 -0.325541
H123 -9.505397 1.241920 -3.366023
H124 -8.031295 1.754269 -3.022988
H125 -10.717434 -0.883775 11.105672
H126 -12.115746 -0.976436 10.216728
H127 6.496166 -10.701212 -6.532808
H128 6.430194 -11.040036 -8.092741
