192
1 12.414492 0.000000 0.000000 0.000000 12.414492 0.000000 0.000000 0.000000 12.414492
O1 0.582480 4.531272 4.162584
O2 0.127618 2.246917 6.947530
O3 5.607371 2.992199 -10.346530
O4 11.615060 -2.928439 2.007236
O5 -0.209380 5.165767 -18.079336
O6 0.898732 6.958691 2.463982
O7 -6.889016 7.471418 1.010434
O8 1.892515 -2.998437 5.707793
O9 -10.437493 3.535497 9.758713
O10 -3.710799 0.482886 -0.917728
O11 -2.980242 -1.123976 1.319114
O12 -6.011484 10.916991 10.944916
O13 -5.759268 8.256199 -2.338821
O14 -9.480068 6.970134 -6.063562
O15 8.678688 1.811492 -5.795263
O16 -19.431371 10.968011 7.277612
O17 -8.790176 6.518971 10.989709
O18 7.789226 -8.048404 0.840731
O19 -4.156003 8.282686 -0.066780
O20 5.264240 -15.934929 -8.333375
O21 14.094677 1.325835 -7.367797
O22 9.758783 -9.695410 -12.184979
O23 3.623654 0.666452 -5.452844
O24 -1.504735 3.374798 2.606876
O25 13.283435 2.924549 -12.654235
O26 2.852787 4.631294 0.510428
O27 10.315861 1.936550 -3.749878
O28 -9.190965 3.743422 3.689351
O29 -0.061860 0.203175 -0.239304
O30 -7.272127 1.469035 -12.381397
O31 -1.111462 -8.700413 -1.842794
O32 8.531350 -4.643222 -7.782431
O33 -8.363295 -13.617109 0.988493
O34 -4.067009 10.552187 4.088584
O35 7.556293 -7.319087 -1.733022
O36 -3.513422 6.618653 1.894625
O37 6.275074 1.446448 -4.738473
O38 -6.342728 -4.168244 6.464022
O39 -7.289869 -13.418527 4.684729
O40 7.003307 -10.221868 -2.079581
O41 3.929890 3.701353 -5.270347
O42 -0.445130 -4.606056 7.546644
O43 -2.287321 12.614337 -7.516015
O44 5.383871 -6.866937 -3.049381
O45 -0.149135 -5.412053 -0.092934
O46 -3.420291 5.800281 -5.412208
O47 -4.382262 -2.788813 -4.390087
O48 2.512524 -0.961462 -8.465830
O49 3.731022 -5.687496 -9.087847
O50 -1.731839 -1.622975 7.737392
O51 1.082284 -1.437272 7.737010
O52 -0.388880 0.637928 15.300461
O53 2.783540 -0.924029 -2.597026
O54 -12.891964 -4.023743 17.398401
O55 -14.993168 -6.440825 9.705427
O56 -1.829105 -0.794304 10.352859
O57 3.462665 9.176237 -13.130235
O58 15.245814 1.127990 11.249509
O59 13.115497 -2.269117 12.293125
O60 10.507858 -3.496947 -1.637135
O61 6.715460 -11.145352 -8.352372
O62 -18.894751 -8.337041 4.937976
O63 -3.636646 4.183978 4.194678
O64 -11.952693 -6.097227 9.814720
H1 1.445769 4.163470 3.814205
H2 -0.123695 4.040358 3.677678
H3 -0.098082 3.226815 7.024874
H4 0.908998 2.178987 7.556394
H5 6.340337 3.654504 -10.375831
H6 5.811761 2.321655 -9.523228
H7 10.982479 -2.141490 1.976260
H8 11.694924 -3.264292 2.896627
H9 -0.135575 5.066487 -19.057014
H10 -0.537828 6.073943 -17.854659
H11 0.995031 6.068293 2.846770
H12 0.879780 7.040002 1.524260
H13 -6.816047 6.506414 0.972231
H14 -5.951945 7.747855 0.909979
H15 1.749602 -2.438712 6.494162
H16 2.180130 -3.856312 6.105258
H17 -10.651431 3.160353 10.631851
H18 -9.963568 2.854671 9.264213
H19 -4.364502 -0.200672 -1.223970
H20 -3.619599 0.334686 0.116198
H21 -3.248360 -1.872733 0.730592
H22 -3.534626 -1.342767 2.077639
H23 -6.413199 10.058670 10.830053
H24 -6.613730 11.653447 10.685235
H25 -6.062856 7.360649 -2.667997
H26 -5.191982 8.770294 -2.999451
H27 -10.077879 6.245100 -5.810762
H28 -9.177893 6.793671 -7.026223
H29 7.793087 1.797794 -5.379984
H30 8.757903 2.649805 -6.298545
H31 -18.810062 11.435748 7.820077
H32 -19.605413 10.077133 7.648333
H33 -9.079589 5.844299 11.654021
H34 -9.611330 6.673428 10.491389
H35 7.581617 -7.687006 -0.085290
H36 8.197752 -7.215905 1.325541
H37 -4.608663 8.167009 -0.951178
H38 -3.290820 8.686755 -0.389574
H39 4.899320 -15.090207 -7.960465
H40 4.560659 -16.278049 -8.894684
H41 13.391591 1.746301 -6.816657
H42 14.601592 2.042532 -7.832427
H43 9.040201 -9.034828 -12.225417
H44 10.494957 -9.348851 -12.877978
H45 3.582467 -0.164994 -4.922648
H46 2.908574 0.675552 -6.088283
H47 -1.263540 2.420591 2.652442
H48 -1.921998 3.465558 1.635877
H49 12.632777 3.586879 -13.045000
H50 12.993745 1.979485 -12.737655
H51 2.181660 3.872374 0.315173
H52 2.795021 5.020348 1.456558
H53 9.631774 1.859274 -4.376033
H54 10.993991 1.480795 -4.254049
H55 -8.668300 4.211239 4.406859
H56 -8.517276 3.674478 2.934936
H57 -0.460516 0.409534 0.645635
H58 0.330831 -0.818152 -0.265453
H59 -6.953408 2.107177 -11.526464
H60 -7.495797 0.679026 -11.897090
H61 -1.762279 -7.946603 -2.018713
H62 -1.479600 -9.324441 -2.557357
H63 9.159179 -4.934806 -7.078213
H64 7.664805 -4.821335 -7.426545
H65 -8.894048 -13.042567 0.327296
H66 -8.815738 -13.425054 1.871440
H67 -3.864558 9.609946 4.176708
H68 -5.063724 10.531754 4.212569
H69 6.656549 -6.949599 -2.012638
H70 7.440029 -8.249434 -1.994445
H71 -3.657353 7.226640 1.095403
H72 -3.751384 7.048348 2.734404
H73 5.397381 1.359093 -5.119664
H74 6.267199 1.871793 -3.849585
H75 -6.820678 -4.689041 7.120163
H76 -6.870276 -4.098517 5.619867
H77 -8.230152 -13.297914 4.393205
H78 -7.289074 -13.373325 5.688261
H79 6.389469 -10.485734 -1.371831
H80 7.845263 -10.513004 -1.642810
H81 4.131255 2.712967 -5.329402
H82 4.598878 4.069774 -5.883420
H83 -1.101851 -3.898394 7.776431
H84 -0.506553 -4.464804 6.533131
H85 -3.038789 11.938508 -7.671020
H86 -2.853346 13.339536 -7.159271
H87 5.048176 -7.439783 -3.828353
H88 4.598455 -6.601369 -2.504518
H89 -0.967698 -6.029189 -0.128466
H90 0.363286 -5.602871 -0.960052
H91 -2.920432 5.046064 -5.753225
H92 -3.206056 5.961902 -4.470493
H93 -4.735781 -3.191826 -5.267873
H94 -3.444923 -2.634707 -4.460241
H95 2.331544 -0.139085 -7.969511
H96 2.428402 -1.752046 -7.817349
H97 4.506848 -5.493305 -9.729583
H98 2.959926 -5.221484 -9.473728
H99 -1.937608 -0.902280 7.146711
H100 -1.922433 -1.258635 8.660538
H101 1.596696 -1.214015 8.645335
H102 0.118376 -1.465787 7.838801
H103 -1.129674 0.283103 15.854848
H104 0.450506 0.565039 15.830698
H105 2.706540 -0.125678 -1.965553
H106 3.002078 -1.711169 -2.031326
H107 -12.778920 -4.800577 16.811984
H108 -11.890777 -3.770989 17.513811
H109 -15.898765 -6.332812 10.035754
H110 -14.516301 -5.616893 9.631708
H111 -2.620785 -0.347061 10.845063
H112 -1.281708 -0.156064 10.810274
H113 3.568961 8.181680 -13.203048
H114 3.864088 9.534340 -12.338253
H115 14.670200 0.867134 12.024170
H116 15.936461 1.870056 11.543961
H117 13.014430 -2.551370 13.230701
H118 13.994785 -2.734197 12.124064
H119 11.168788 -3.911121 -0.962652
H120 10.919735 -2.516869 -1.733823
H121 7.640994 -11.155066 -8.260541
H122 6.371806 -12.037846 -8.009328
H123 -17.956066 -8.015906 5.134926
H124 -18.751837 -9.311210 4.971658
H125 -2.781494 3.683314 3.756956
H126 -3.715403 5.011464 3.759784
H127 -11.728733 -7.035087 9.510549
H128 -12.265027 -5.672064 9.035016
