192
1 12.414492 0.000000 0.000000 0.000000 12.414492 0.000000 0.000000 0.000000 12.414492
O1 -3.408986 4.765896 -3.344533
O2 1.626451 -4.985045 -1.222740
O3 4.388589 -1.180126 0.121548
O4 12.167896 9.532566 -3.114120
O5 -5.920904 2.061228 5.548192
O6 -9.002049 -0.012332 4.260971
O7 -5.829124 5.431525 -6.597792
O8 3.752801 -5.827453 9.735985
O9 -1.563213 0.815913 -2.841059
O10 6.681618 0.025667 0.506222
O11 2.996945 -2.308361 -3.474680
O12 -4.467216 6.353940 -1.734738
O13 -0.217644 3.097905 7.640538
O14 -6.368818 -6.439146 -0.191499
O15 3.854617 2.048312 -3.492836
O16 8.819061 4.552397 4.360716
O17 -6.082371 -3.029750 2.063545
O18 4.088530 -4.880061 0.473677
O19 5.621201 -0.724848 5.481605
O20 -6.454862 2.399707 -9.849662
O21 7.108101 14.319976 -1.678433
O22 9.247989 7.056689 3.439094
O23 8.385972 -1.739425 -2.751936
O24 8.501935 -1.704737 1.007333
O25 -0.952451 4.842999 -7.520651
O26 -2.110918 -6.272110 -5.414796
O27 2.895686 -3.846182 -18.224426
O28 -7.795080 3.677077 -1.462690
O29 3.502806 -2.057890 2.624968
O30 -2.425631 8.581211 -6.895087
O31 7.229117 9.562833 4.938400
O32 -2.433127 -0.706310 2.906936
O33 4.733625 8.257301 -7.647425
O34 3.355150 1.858539 12.647209
O35 -6.856430 10.938759 9.995343
O36 -0.028160 -0.385550 0.066339
O37 -9.095846 -6.782577 2.728874
O38 1.705012 -1.361013 -6.387373
O39 0.000023 -4.911937 1.196660
O40 -4.575304 4.251598 1.883070
O41 -14.538808 1.537473 1.488681
O42 -6.469062 -4.288387 -2.847850
O43 -1.935706 0.978124 -5.908131
O44 2.301617 2.365921 4.806284
O45 6.281437 -5.789628 -9.478624
O46 1.603533 0.061338 9.420927
O47 2.567549 3.684879 -5.138520
O48 -0.481466 4.562968 12.969473
O49 -0.009458 -9.679604 3.501989
O50 5.767667 0.534120 -4.232596
O51 -3.278193 3.371656 11.958685
O52 0.848046 -14.780495 14.116752
O53 8.405739 2.257728 -4.478073
O54 0.085834 -5.529818 -3.638197
O55 1.026686 -5.755436 3.744810
O56 -2.648283 -1.773057 7.198383
O57 -2.590535 -5.624197 0.571448
O58 1.828436 -8.693197 13.954476
O59 2.253458 6.222891 -4.816507
O60 10.867273 -2.212895 -0.968732
O61 -7.838626 4.057959 4.789802
O62 -12.765272 10.427224 4.039369
O63 -0.792635 -7.790402 -2.212683
O64 -5.023054 -4.565390 -5.144464
H1 -2.716259 5.138392 -3.989652
H2 -2.812349 4.448827 -2.584432
H3 1.534411 -4.077391 -1.610746
H4 2.191580 -5.471018 -1.844615
H5 4.179691 -1.456148 1.139231
H6 3.795321 -0.465232 -0.169440
H7 11.460952 9.878008 -2.503218
H8 11.818744 9.931277 -3.959075
H9 -5.155381 2.059881 6.193284
H10 -6.524167 2.787191 5.766155
H11 -9.628889 -0.471315 4.857850
H12 -9.354391 0.939472 4.364004
H13 -5.529160 6.263152 -6.131213
H14 -5.028551 4.863593 -6.747904
H15 3.883175 -6.726075 10.111805
H16 3.259560 -6.065179 8.821345
H17 -1.817465 1.086988 -3.804225
H18 -2.075195 1.460437 -2.318463
H19 5.773862 -0.474395 0.432567
H20 6.563576 0.563840 -0.307772
H21 2.354475 -1.586173 -3.269948
H22 3.936110 -1.859196 -3.433541
H23 -3.821458 6.758624 -1.055143
H24 -3.918522 5.820280 -2.442504
H25 -0.688865 3.800112 7.221762
H26 0.748067 3.140435 7.323614
H27 -5.714671 -6.376557 -0.942795
H28 -5.812624 -6.750836 0.558931
H29 4.354186 2.598894 -2.899729
H30 4.439775 1.389947 -3.905478
H31 9.543679 4.178637 4.843467
H32 9.227976 5.397525 4.079320
H33 -5.981552 -4.026320 2.166410
H34 -6.799140 -3.143001 1.360663
H35 4.706882 -5.363946 -0.100698
H36 3.317323 -4.860315 -0.114803
H37 4.794338 -0.531440 4.908010
H38 6.105487 0.235267 5.417073
H39 -6.275454 1.434785 -10.240011
H40 -6.548941 2.293304 -8.858969
H41 6.246742 14.902602 -1.695181
H42 7.728685 15.057098 -1.499000
H43 8.226347 7.110993 3.453594
H44 9.530120 7.624579 4.189044
H45 8.185016 -0.797336 -2.639911
H46 8.890992 -2.160110 -1.976613
H47 7.730604 -2.335164 1.239788
H48 7.889803 -0.967001 0.666849
H49 -0.776636 3.965637 -7.933258
H50 -0.353079 5.443112 -7.964350
H51 -2.130555 -5.325742 -5.743052
H52 -1.710647 -6.841728 -6.188747
H53 3.760455 -4.056522 -18.665117
H54 3.058318 -3.425711 -17.283649
H55 -7.311440 4.435728 -0.840222
H56 -8.309388 3.185592 -0.793599
H57 3.301043 -1.234965 3.093605
H58 2.571207 -2.253782 2.122723
H59 -2.691481 9.157566 -6.037711
H60 -1.453561 8.777111 -7.045043
H61 6.604772 10.346109 5.155213
H62 8.110062 9.956232 5.279673
H63 -3.134940 -0.469702 3.533340
H64 -2.883288 -1.284047 2.135110
H65 5.600125 8.595014 -7.442503
H66 4.454386 8.817358 -8.399294
H67 2.547139 2.361310 12.976301
H68 3.854171 1.843826 13.491953
H69 -6.837733 10.871144 10.970658
H70 -6.379899 10.183003 9.580253
H71 0.038032 -1.084970 0.820483
H72 -0.526958 0.339332 0.488555
H73 -8.439346 -7.421014 3.131655
H74 -8.626240 -6.292841 2.048934
H75 1.399714 -1.102685 -5.524414
H76 2.223640 -2.211211 -6.203042
H77 0.422739 -5.288727 0.403012
H78 0.346761 -5.488901 1.912373
H79 -4.014606 4.150386 2.718499
H80 -5.307239 3.625865 2.112259
H81 -15.365841 1.984629 1.362382
H82 -14.795383 0.675501 1.930520
H83 -5.834377 -4.720456 -2.303118
H84 -7.386171 -4.739099 -2.539317
H85 -2.764073 1.457741 -5.608920
H86 -1.294024 1.651301 -5.548891
H87 2.462013 2.600835 5.755522
H88 1.342593 2.566634 4.630274
H89 6.119250 -6.104417 -8.573851
H90 6.628720 -6.613205 -9.923147
H91 2.137561 0.835528 9.178161
H92 0.834666 0.442699 9.780115
H93 2.645414 4.664246 -5.003076
H94 3.183777 3.286610 -4.496304
H95 -0.582805 4.396838 11.992939
H96 -1.326691 5.134949 13.019033
H97 0.833164 -9.540252 2.898340
H98 -0.706968 -10.111700 2.873776
H99 5.729204 -0.053682 -3.407595
H100 5.767647 -0.095305 -5.084002
H101 -2.462568 3.186350 12.417440
H102 -3.950729 3.817594 12.663842
H103 0.823252 -15.721098 14.066760
H104 0.523430 -14.626244 15.023972
H105 7.746786 1.742071 -3.918191
H106 8.640778 3.098690 -3.851224
H107 -0.243861 -4.760561 -3.200647
H108 -0.570968 -5.803247 -4.272469
H109 1.956140 -6.154664 3.770165
H110 1.113437 -4.809117 4.016412
H111 -2.411540 -0.846572 6.959786
H112 -3.121083 -1.616003 8.073479
H113 -1.692186 -5.236664 0.621483
H114 -2.939118 -5.428789 1.498881
H115 2.468870 -7.944527 14.145994
H116 0.977086 -8.304616 13.598667
H117 2.502413 7.116799 -5.368263
H118 1.415297 6.445672 -4.294645
H119 10.303591 -2.327183 -0.204817
H120 11.411779 -1.447120 -0.612722
H121 -7.351558 4.707599 5.416886
H122 -8.614201 3.823171 5.386960
H123 -13.375305 11.046347 3.674513
H124 -12.165612 10.868950 4.679701
H125 -0.542429 -8.476354 -2.887486
H126 -0.250651 -7.031403 -2.277278
H127 -5.200953 -3.784062 -5.741310
H128 -5.554592 -4.606816 -4.360597
