192
1 12.414492 0.000000 0.000000 0.000000 12.414492 0.000000 0.000000 0.000000 12.414492
O1 0.410830 10.428326 1.435503
O2 3.446722 4.548791 6.914885
O3 -0.962625 8.849093 -6.977302
O4 0.563638 -4.698074 1.596827
O5 4.699392 11.691008 -17.030803
O6 -0.027615 -0.789843 4.059038
O7 -7.031188 8.260399 5.666502
O8 1.044444 -4.829077 6.594087
O9 -12.353798 5.151378 6.157453
O10 -6.134303 -3.015939 -4.141409
O11 -2.317507 -1.833044 1.317877
O12 -9.040575 9.738641 10.383329
O13 -3.763634 5.630606 -4.005481
O14 -7.115545 7.075179 -3.373045
O15 11.768567 4.242980 1.248851
O16 -15.878704 3.811236 5.264710
O17 -7.819146 -0.456553 0.762741
O18 -1.165689 -4.825508 -0.476767
O19 -9.297500 6.570256 -7.482193
O20 8.797312 -14.490064 -4.381240
O21 14.556669 -1.165702 -4.942308
O22 7.678101 -5.805224 -6.381010
O23 2.178126 -0.856307 -0.464183
O24 -1.415417 -3.001413 10.056915
O25 1.973150 5.356609 -11.711307
O26 5.013902 0.499858 3.316141
O27 7.954034 2.501402 0.647547
O28 -6.558877 2.223345 5.084611
O29 -1.282384 0.921120 -2.093635
O30 -5.697960 -2.526789 -8.610998
O31 -1.615523 -8.018982 -2.976311
O32 2.170456 -2.870112 -8.524023
O33 -4.244806 -10.324950 3.414831
O34 -2.756611 7.221662 4.481992
O35 4.868430 -9.118860 -2.185917
O36 -0.857455 1.625963 3.050854
O37 5.951118 0.971270 -2.796837
O38 -1.327938 -7.528856 3.895824
O39 -7.872421 -2.972626 2.051305
O40 6.578170 -7.581321 1.106326
O41 4.815454 -4.749310 -0.242547
O42 -1.818905 2.941687 7.183546
O43 -0.697469 10.000062 -4.890445
O44 5.866738 -7.905862 -4.199614
O45 -3.911510 -3.974837 2.442505
O46 0.683732 5.577622 -2.078544
O47 -3.572467 6.972612 -1.047393
O48 3.162880 2.054620 -6.553698
O49 -0.271010 -10.630526 -12.150681
O50 -3.134938 -0.642042 3.692693
O51 3.151448 -0.772158 5.089462
O52 6.941478 0.147438 12.009791
O53 4.342575 -7.590897 -0.129438
O54 -10.387492 -10.640803 3.385729
O55 -10.102693 7.392888 9.061119
O56 -2.053037 -0.014163 6.109486
O57 2.243856 3.387828 -15.591016
O58 13.772870 0.809193 9.782954
O59 7.523703 1.745328 7.327644
O60 7.181155 -3.322161 -1.597916
O61 9.521041 -7.816080 -0.297212
O62 -15.612251 -1.087404 -1.157542
O63 2.445572 2.333911 0.461388
O64 -6.475631 -7.367104 4.345007
H1 0.419814 10.815416 2.406050
H2 0.296213 9.429393 1.580365
H3 3.402421 3.790807 6.300956
H4 4.347347 4.582821 7.205259
H5 -0.926690 9.601164 -7.549223
H6 -0.986339 9.136948 -6.050975
H7 -0.147249 -4.830282 0.909062
H8 0.426412 -5.431672 2.254820
H9 3.741270 11.386568 -17.044290
H10 4.964515 11.917818 -17.966148
H11 -0.489937 0.011119 3.831136
H12 0.738340 -0.421364 4.557644
H13 -6.712140 8.735646 6.513651
H14 -6.674217 8.815120 4.946879
H15 0.463639 -4.215581 6.091398
H16 1.770654 -5.028749 5.912714
H17 -12.220735 6.073338 6.578835
H18 -13.047254 4.503443 6.470016
H19 -6.756430 -2.283545 -4.015963
H20 -5.493690 -2.867032 -4.800273
H21 -1.310195 -1.854553 1.173294
H22 -2.669993 -2.769409 1.317300
H23 -9.552298 9.131879 9.827633
H24 -8.607418 9.151370 11.062995
H25 -2.831144 5.244374 -3.861759
H26 -3.926351 6.078604 -3.152303
H27 -6.812548 7.871346 -3.751458
H28 -8.117606 7.108552 -3.340546
H29 11.937291 3.287749 0.876484
H30 11.779041 4.200576 2.243205
H31 -15.616440 3.088450 5.886493
H32 -15.135102 4.298750 4.895999
H33 -7.889189 -1.340188 1.235170
H34 -8.688944 -0.476857 0.171803
H35 -2.170066 -4.995501 -0.483614
H36 -0.729766 -5.540231 -0.987980
H37 -8.502192 7.081311 -7.111760
H38 -9.504282 5.860114 -6.785684
H39 9.519253 -14.375794 -5.000002
H40 9.111133 -14.997332 -3.595679
H41 14.145130 -0.382221 -4.506492
H42 14.661731 -0.944512 -5.914165
H43 8.025634 -5.991304 -5.424390
H44 6.960390 -5.097940 -6.468956
H45 1.439292 -1.122399 0.229731
H46 2.496430 -1.675904 -0.877998
H47 -2.168648 -2.444652 10.331300
H48 -1.326433 -3.710086 10.866184
H49 1.915877 6.241409 -11.287195
H50 1.188848 4.847974 -11.370957
H51 5.169759 1.435445 3.562249
H52 4.916664 0.363557 2.341918
H53 7.460123 1.657122 0.415203
H54 8.293645 2.436685 1.550769
H55 -5.990615 2.097209 5.878839
H56 -6.423868 3.194487 4.828086
H57 -1.838804 0.162434 -1.790638
H58 -0.405222 0.679266 -2.395013
H59 -4.952215 -3.017589 -8.994468
H60 -5.445006 -1.581596 -8.521703
H61 -2.080042 -7.802209 -2.170018
H62 -0.688697 -7.803560 -2.791097
H63 2.979330 -3.029077 -9.072820
H64 1.843074 -3.753450 -8.239810
H65 -5.089643 -10.734468 3.594893
H66 -4.064646 -9.781591 4.243586
H67 -2.162001 7.876956 4.947368
H68 -3.377881 6.904791 5.137825
H69 4.816757 -8.478947 -1.227855
H70 5.210202 -8.542701 -2.903427
H71 -0.996605 1.485857 2.105146
H72 -1.646799 1.924319 3.489074
H73 5.680190 0.274147 -3.442626
H74 5.306614 1.688393 -2.669622
H75 -0.676479 -7.367710 4.626131
H76 -1.760789 -6.704662 3.980309
H77 -7.061731 -2.934960 2.678212
H78 -7.604215 -3.749701 1.458053
H79 6.357026 -7.550312 2.055568
H80 7.088432 -8.498055 0.973895
H81 4.522324 -5.673368 -0.390716
H82 5.455931 -4.556540 -0.945877
H83 -1.821673 3.371122 8.051678
H84 -1.794732 1.946210 7.324027
H85 0.320232 10.165661 -4.897984
H86 -0.813186 9.731371 -3.943105
H87 6.760620 -8.070927 -4.407869
H88 5.757565 -6.900652 -4.208773
H89 -3.724610 -4.380659 3.346501
H90 -4.660031 -4.542916 2.191488
H91 1.069057 5.573706 -1.128527
H92 1.047766 4.735705 -2.408294
H93 -4.333249 7.491799 -1.465555
H94 -3.904720 6.082094 -0.738054
H95 4.178097 1.975288 -6.727965
H96 3.106160 1.671594 -5.693791
H97 -0.726220 -10.769196 -13.108352
H98 0.654987 -10.852017 -12.433930
H99 -3.362155 0.185868 3.277813
H100 -2.943932 -1.290150 2.947175
H101 3.541311 -0.410151 4.326613
H102 2.748262 -1.554977 4.676002
H103 6.144959 -0.291910 12.367466
H104 6.610207 0.438495 11.051198
H105 5.239691 -7.661859 0.477533
H106 3.379590 -7.684742 0.275450
H107 -10.082299 -10.975922 4.254530
H108 -11.321701 -10.508291 3.532039
H109 -10.679309 7.516627 8.212973
H110 -10.694981 6.855850 9.597607
H111 -2.454721 -0.263001 5.187363
H112 -1.153404 -0.497518 6.117755
H113 2.537059 3.936553 -16.455044
H114 3.066024 3.384383 -15.005388
H115 14.100032 1.771789 9.622533
H116 14.386995 0.354947 10.433447
H117 8.199821 1.140858 6.977808
H118 7.113514 1.457363 8.151129
H119 6.744058 -3.111688 -2.448255
H120 7.412161 -2.381850 -1.347916
H121 10.220379 -7.792223 0.455005
H122 9.055667 -8.629434 -0.213912
H123 -15.101162 -1.238630 -0.367440
H124 -16.378005 -0.571611 -0.829333
H125 3.266274 1.924570 0.792851
H126 1.865094 2.310317 1.320352
H127 -7.278120 -6.897261 4.660948
H128 -5.741261 -6.974132 4.915597
