192
1 12.414492 0.000000 0.000000 0.000000 12.414492 0.000000 0.000000 0.000000 12.414492
O1 -7.336184 4.808488 3.306820
O2 -5.311225 1.117806 -4.147223
O3 0.406215 -1.805134 -2.250793
O4 16.542080 6.792524 -3.201634
O5 -3.303075 5.424016 2.310709
O6 -14.520131 1.656924 2.665511
O7 -1.874527 7.416199 -11.356713
O8 5.973732 -4.860322 10.749857
O9 -3.419346 -2.809937 -8.618898
O10 5.630191 0.679803 5.993776
O11 -0.579947 -1.648869 -5.195308
O12 -0.507971 5.430877 -0.740376
O13 -0.632623 8.765605 4.322298
O14 -1.541206 -4.292457 7.992357
O15 1.297552 2.352191 -6.938077
O16 11.691280 3.677895 4.120380
O17 -8.925271 -1.529851 -3.691580
O18 2.648268 -0.416256 -1.221738
O19 7.887590 -2.020946 1.429451
O20 -13.237965 -0.496623 -10.483322
O21 2.030038 14.550104 -2.241384
O22 12.243298 9.384264 1.812575
O23 5.176549 1.050292 0.536632
O24 12.191582 -4.385640 -1.831371
O25 -1.104226 13.382183 -6.028444
O26 -4.575334 2.678600 -12.569343
O27 6.932390 -3.785696 -16.675466
O28 -11.901065 4.042607 1.538343
O29 2.353147 -5.889895 5.773532
O30 -6.791160 12.046904 -9.703741
O31 4.489455 8.671141 7.048838
O32 -2.078794 3.123209 -1.023333
O33 6.685686 3.920502 -5.291142
O34 0.843106 3.527830 8.059313
O35 -6.681563 12.160460 10.179515
O36 2.776432 0.916357 2.668059
O37 -10.232892 -13.665368 3.829556
O38 1.871032 -5.191953 -0.027381
O39 7.883228 -6.407804 6.546275
O40 -8.667500 2.567622 4.554318
O41 -12.235581 1.536865 0.086259
O42 -2.783267 0.663434 -4.104435
O43 -4.856536 1.192736 -8.591985
O44 4.123402 4.858007 7.470193
O45 3.218163 -7.530520 -11.053940
O46 2.884438 0.130459 6.293399
O47 13.562461 6.279615 -3.623561
O48 -8.099193 3.787671 11.108455
O49 -2.483143 -15.917012 -0.970178
O50 7.942389 7.198899 4.270244
O51 -2.064922 -0.804913 11.748140
O52 3.271928 -16.182023 16.942821
O53 5.763511 -4.560026 1.005970
O54 8.960620 -6.228530 -3.058769
O55 8.450689 -2.054332 6.725451
O56 -0.023102 -5.357754 6.153701
O57 -6.987920 -4.867534 3.628163
O58 -1.899296 -8.942830 8.502006
O59 7.021505 4.197521 -2.666017
O60 15.639689 -2.403562 0.452750
O61 -1.856760 5.046752 6.151115
O62 -16.975525 12.342145 -0.276478
O63 -5.287210 -8.782811 -10.101905
O64 -4.412375 -6.181284 -0.545287
H1 -8.081215 4.872101 2.628584
H2 -7.558145 4.079271 3.878936
H3 -5.469438 2.076503 -4.184065
H4 -4.340205 0.930471 -4.335633
H5 -0.442844 -1.539239 -1.767955
H6 1.125083 -1.377598 -1.683454
H7 15.669011 6.540906 -2.756574
H8 17.249068 6.948937 -2.419220
H9 -3.569667 5.953350 3.112266
H10 -3.963952 4.563504 2.303540
H11 -14.006177 2.418879 3.021291
H12 -15.377504 1.705829 3.051524
H13 -2.125865 6.692260 -10.801376
H14 -1.295787 8.000009 -10.868235
H15 5.653843 -4.569326 11.672697
H16 6.788533 -5.424675 10.959369
H17 -2.448166 -2.856050 -8.535347
H18 -3.774227 -2.160367 -9.290316
H19 6.102040 0.369678 6.760707
H20 4.708120 0.373224 6.043876
H21 -0.695049 -2.520582 -5.673571
H22 -0.323933 -1.867423 -4.282540
H23 -0.845162 6.079319 -0.060739
H24 -0.193043 6.004502 -1.489196
H25 -0.442619 7.951214 4.896433
H26 -0.148572 8.605594 3.428873
H27 -1.021965 -4.270524 8.829500
H28 -0.869426 -4.680253 7.261266
H29 2.144905 2.706309 -7.378165
H30 1.376134 2.841937 -6.021003
H31 11.057237 3.875191 4.800778
H32 12.378531 3.026242 4.444373
H33 -8.501033 -2.282490 -4.101798
H34 -9.529577 -1.039312 -4.321837
H35 3.080212 -0.792196 -2.033053
H36 2.610705 0.546801 -1.547256
H37 7.750377 -2.932965 1.039273
H38 7.641061 -1.248216 0.785997
H39 -13.800040 0.250776 -10.046147
H40 -12.535467 0.098737 -10.877287
H41 1.562296 15.104555 -3.032270
H42 2.613675 15.245311 -1.897013
H43 12.072163 10.341272 2.007987
H44 12.874206 9.453395 1.095713
H45 5.196834 1.967923 0.212735
H46 4.810380 0.547194 -0.210362
H47 12.684936 -3.469559 -1.947691
H48 11.263900 -3.989400 -1.478787
H49 -0.845178 12.438211 -5.977415
H50 -0.311805 13.878088 -6.297069
H51 -3.656713 2.811051 -12.943806
H52 -4.849195 3.141919 -11.742895
H53 6.919031 -3.867329 -15.650691
H54 7.399246 -2.879732 -16.947278
H55 -12.317741 4.697801 0.994446
H56 -12.099086 4.200498 2.440534
H57 2.780969 -5.062480 5.410201
H58 3.059604 -6.471849 6.170674
H59 -7.254299 12.585461 -10.382981
H60 -6.153816 11.497885 -10.193367
H61 5.474908 8.504913 7.125532
H62 4.054830 8.113424 7.734775
H63 -1.583350 2.280006 -0.807557
H64 -1.471647 3.922202 -0.880800
H65 7.008914 4.046702 -4.346315
H66 5.709157 4.083781 -5.205447
H67 -0.240201 3.421406 8.107266
H68 0.884504 4.550642 8.079135
H69 -7.457776 11.937341 9.615495
H70 -6.089487 12.555184 9.510766
H71 3.396978 0.983613 1.924099
H72 2.884150 -0.029405 3.023933
H73 -10.070573 -14.579775 4.118995
H74 -11.192516 -13.620361 3.860981
H75 2.145562 -4.217552 -0.005571
H76 1.003822 -5.012722 -0.499963
H77 7.471569 -5.666004 7.017270
H78 7.147728 -7.133298 6.529516
H79 -8.872779 1.782490 3.923005
H80 -7.900769 2.424187 5.178966
H81 -12.188037 2.305790 0.704918
H82 -11.973044 1.868593 -0.803896
H83 -2.034225 0.967371 -4.727306
H84 -2.550848 0.335682 -3.231818
H85 -5.487293 0.742520 -9.227534
H86 -5.345978 1.181091 -7.754347
H87 4.456366 5.570123 8.102220
H88 3.806099 4.106898 8.034947
H89 3.056298 -6.588678 -11.022975
H90 2.355439 -7.949720 -10.839308
H91 2.381026 0.864590 5.906959
H92 2.674929 -0.585175 5.714781
H93 12.784127 6.681973 -3.205618
H94 13.834638 6.776520 -4.398130
H95 -7.207473 4.067744 10.876172
H96 -8.194431 4.368412 11.919014
H97 -2.381369 -14.924066 -0.745328
H98 -2.327585 -16.429983 -0.087742
H99 8.444361 8.068253 4.207413
H100 7.967538 6.690352 5.089121
H101 -1.511147 -0.617439 12.599655
H102 -2.920421 -0.321217 12.029853
H103 3.542615 -15.936413 17.889176
H104 4.146463 -16.400205 16.592387
H105 5.555451 -4.452321 1.983241
H106 6.489076 -5.164566 1.016798
H107 8.781930 -6.628629 -3.922992
H108 9.064780 -5.317453 -3.206436
H109 8.510028 -2.557878 5.886848
H110 9.250641 -2.264472 7.227780
H111 -0.565920 -6.166360 5.918190
H112 1.006714 -5.742164 6.103884
H113 -6.015876 -4.772390 3.961231
H114 -7.177566 -5.832397 3.548870
H115 -1.976323 -8.549116 9.382444
H116 -2.413062 -9.779198 8.589713
H117 7.452976 3.501176 -2.064188
H118 7.614194 5.021910 -2.671281
H119 16.209106 -2.470386 1.229495
H120 15.700960 -1.509833 0.139920
H121 -2.650245 5.590710 6.057596
H122 -1.979982 4.393862 7.025145
H123 -17.161441 13.353548 -0.161154
H124 -17.608536 12.116336 -0.999676
H125 -5.339688 -9.777266 -9.977324
H126 -6.145309 -8.365696 -9.768095
H127 -3.720527 -5.475754 -0.783948
H128 -4.322403 -6.309567 0.446375
