192
1 12.414492 0.000000 0.000000 0.000000 12.414492 0.000000 0.000000 0.000000 12.414492
O1 -5.134132 4.316586 1.819574
O2 -0.644948 0.833414 -5.470506
O3 -0.872230 -0.915170 -0.722187
O4 14.472269 6.638972 -6.986386
O5 -1.883917 4.253289 6.801009
O6 -10.985654 2.546195 4.922350
O7 -4.172092 5.783103 -7.281187
O8 3.027042 -4.617698 9.047819
O9 -4.645574 -1.499928 -5.975003
O10 4.239403 0.045194 3.803962
O11 1.179541 -2.902400 -5.073608
O12 -0.808215 5.044539 0.936920
O13 -1.263381 2.672120 4.716866
O14 -7.353762 -9.826847 4.330958
O15 0.111071 6.071453 -4.949824
O16 11.567382 6.825898 4.469066
O17 -11.050517 -1.378615 -2.595472
O18 1.676352 -1.525889 2.097990
O19 6.280170 -2.381262 0.089651
O20 -10.527523 -0.097807 -7.042656
O21 4.312129 13.064367 -0.739749
O22 11.972176 7.393308 1.935250
O23 7.218684 -0.012086 -0.588540
O24 8.562263 -5.718138 2.328495
O25 -2.278066 8.459850 -6.756561
O26 -1.977412 -1.525987 -8.205393
O27 4.172434 -3.605922 -19.629734
O28 -10.619242 4.322341 0.866204
O29 0.593117 -2.391209 4.600672
O30 -3.731460 11.611351 -10.649188
O31 6.917869 11.238309 3.814875
O32 -2.441476 3.219502 -0.244753
O33 7.667137 2.928332 -7.062846
O34 0.781133 4.921206 10.410101
O35 -8.481856 11.436899 9.686964
O36 4.334893 -1.053000 1.436623
O37 -8.423430 -12.767223 6.934808
O38 0.897023 -3.973007 -1.321287
O39 4.389434 -5.323731 0.812545
O40 -9.524517 4.416968 3.516068
O41 -10.141743 2.129135 -0.441917
O42 -2.048893 -1.785077 -5.219994
O43 -4.262421 1.077993 -5.064614
O44 4.951227 2.050778 6.893799
O45 5.407874 -6.640601 -13.930262
O46 2.464961 2.770406 7.378874
O47 10.965944 8.147466 -3.339537
O48 -4.709280 3.965420 10.999481
O49 0.427621 -11.646782 1.019612
O50 8.260488 7.741414 -2.441489
O51 -1.891295 -3.019937 13.922727
O52 5.613945 -16.282480 14.977794
O53 9.533227 -1.005139 -2.803953
O54 7.839932 -6.715157 -4.056388
O55 5.484750 -6.486416 5.247949
O56 -6.179382 -3.553437 7.177452
O57 -4.086240 -4.257377 0.234292
O58 0.958527 -9.994722 9.454027
O59 3.558545 5.330459 -4.875436
O60 14.413461 -4.244981 0.955771
O61 -6.583220 3.981260 8.401208
O62 -14.447129 13.937683 2.038241
O63 -2.026304 -10.412546 -3.121404
O64 -6.924220 -3.336429 -2.362866
H1 -4.901536 4.612803 2.713628
H2 -5.192257 3.374768 2.124189
H3 0.060802 0.195072 -5.749014
H4 -1.400810 0.188810 -5.233244
H5 0.021459 -0.961790 -1.218033
H6 -0.947623 -1.764823 -0.139178
H7 13.684777 6.941929 -7.512693
H8 14.150902 6.370744 -6.143693
H9 -1.173040 4.874264 7.097557
H10 -2.581877 4.971203 6.704985
H11 -11.949932 2.778016 4.797049
H12 -10.926982 1.499601 4.837620
H13 -5.099354 6.171116 -7.087269
H14 -3.893398 6.181377 -8.105080
H15 3.262231 -5.460686 8.553246
H16 3.855834 -4.390613 9.468433
H17 -5.044468 -0.681365 -5.590104
H18 -3.655765 -1.578236 -5.708317
H19 4.365116 1.035181 3.812447
H20 3.397432 -0.004651 4.390688
H21 1.980138 -3.380282 -5.022225
H22 1.035756 -2.697665 -6.011652
H23 -0.790669 5.947368 1.298124
H24 -1.699761 4.723465 0.699836
H25 -1.161199 2.104801 5.517411
H26 -1.599600 3.429850 5.228711
H27 -7.448273 -9.968650 5.335159
H28 -7.889237 -9.009311 4.063600
H29 -0.499681 6.756787 -4.474016
H30 0.271492 5.645386 -4.102354
H31 11.893535 7.088292 3.576152
H32 11.769685 5.911374 4.558124
H33 -11.210385 -2.361551 -2.328763
H34 -11.389734 -1.346412 -3.487436
H35 1.058185 -0.841166 1.759848
H36 2.528982 -1.095175 1.898523
H37 6.441452 -1.503447 -0.416131
H38 5.540373 -2.228712 0.590639
H39 -9.941122 -0.165920 -6.220177
H40 -10.909347 -1.001985 -7.356924
H41 3.690576 13.879850 -0.633693
H42 5.240363 13.319476 -0.619062
H43 11.363694 8.151634 1.805822
H44 12.836331 7.925244 1.721586
H45 8.075681 -0.355669 -0.239452
H46 7.401667 0.191381 -1.561527
H47 8.350099 -5.295582 1.484910
H48 9.396989 -5.231096 2.580460
H49 -1.607496 7.870655 -7.129144
H50 -3.105718 7.914612 -6.672639
H51 -2.724178 -0.964474 -8.349204
H52 -2.396441 -2.364514 -7.881032
H53 4.893817 -3.440118 -18.926421
H54 3.554040 -4.260137 -19.249790
H55 -11.560488 4.570050 0.802603
H56 -10.241830 4.606155 1.753194
H57 1.003025 -2.399154 3.713349
H58 -0.227396 -1.837136 4.306571
H59 -4.385794 11.716623 -9.848871
H60 -3.113741 12.455194 -10.518586
H61 7.253462 11.089468 4.759219
H62 6.159097 11.850686 3.999991
H63 -3.386510 3.622169 -0.507916
H64 -2.147964 2.891222 -1.083342
H65 7.740634 3.869821 -6.994430
H66 6.835148 2.629954 -7.455098
H67 0.459729 5.297029 11.253591
H68 1.613707 5.404833 10.162217
H69 -8.244823 12.241498 10.463917
H70 -9.455850 11.253192 9.799617
H71 4.448118 -0.208039 0.842290
H72 4.351564 -0.694535 2.393143
H73 -8.205075 -13.689706 6.791144
H74 -8.427888 -12.778589 7.921959
H75 1.429694 -4.399374 -2.043958
H76 1.197273 -4.106383 -0.454961
H77 4.784133 -4.820757 1.584691
H78 4.147253 -6.118195 1.323472
H79 -10.126916 3.681379 3.869982
H80 -9.696500 5.186973 4.111225
H81 -10.024755 3.096742 -0.184027
H82 -10.702572 1.648414 0.217968
H83 -1.925693 -2.650686 -5.744270
H84 -1.987460 -1.841519 -4.286563
H85 -3.383598 1.424697 -4.771098
H86 -4.523343 1.733234 -5.781738
H87 3.980437 2.278944 7.205619
H88 4.958890 1.081437 6.668853
H89 5.873012 -6.034714 -14.519706
H90 5.481966 -6.058648 -13.079250
H91 1.835794 2.655589 8.165569
H92 1.916321 2.762466 6.553886
H93 10.023669 8.386576 -3.207939
H94 11.365360 8.531796 -2.600606
H95 -4.531645 4.718687 10.370859
H96 -5.556975 4.358447 11.303786
H97 -0.145844 -11.069722 1.456269
H98 -0.082193 -12.024559 0.312158
H99 7.938426 6.944908 -2.919597
H100 7.656380 8.499064 -2.572764
H101 -2.212641 -2.247765 14.445937
H102 -2.623904 -3.389227 13.406901
H103 6.220663 -15.531761 14.958396
H104 5.306369 -16.383761 15.919898
H105 9.591631 -0.040161 -3.028874
H106 10.246906 -1.256815 -2.201158
H107 7.217118 -7.482736 -4.225189
H108 7.658389 -6.145832 -4.830961
H109 4.789545 -6.458807 5.932587
H110 5.211698 -5.870830 4.557694
H111 -5.722101 -2.665049 7.138861
H112 -6.593306 -3.513576 8.070869
H113 -3.878488 -4.467851 -0.819963
H114 -4.724358 -3.469514 0.176054
H115 1.152624 -10.477830 10.323947
H116 0.863050 -9.101070 9.768423
H117 4.403433 4.951827 -4.467163
H118 2.979913 4.478654 -4.859402
H119 15.310964 -4.687890 0.792926
H120 14.576377 -3.250604 0.976629
H121 -6.633226 3.817533 9.348193
H122 -6.740891 3.111170 7.966063
H123 -14.710304 14.690531 1.525967
H124 -14.315431 14.249998 3.023181
H125 -2.401124 -9.618704 -3.633065
H126 -1.089557 -10.498412 -3.442782
H127 -7.475049 -2.510478 -2.470776
H128 -6.541993 -3.155424 -1.442861
