192
1 12.414492 0.000000 0.000000 0.000000 12.414492 0.000000 0.000000 0.000000 12.414492
O1 -6.741463 3.311405 5.383539
O2 -5.545691 -1.471384 -5.880305
O3 0.468840 0.103178 1.693642
O4 17.198143 7.828243 -2.524370
O5 -5.957591 5.881452 0.291352
O6 -15.220567 -1.557196 2.102725
O7 1.893536 6.440006 -11.845963
O8 9.401524 -3.983530 9.845368
O9 -4.150148 -3.186809 -7.142117
O10 3.839616 -1.694918 4.111251
O11 -0.056149 0.148812 -2.579217
O12 -4.245730 6.028408 -2.392453
O13 0.687202 11.438119 5.409287
O14 -1.568107 -2.110965 6.335470
O15 0.837399 4.793862 -3.071537
O16 12.463853 3.748870 5.147766
O17 -5.648726 -2.866736 -3.346405
O18 4.616391 0.536271 -0.892365
O19 11.589258 -5.973238 0.778344
O20 -15.878985 3.368097 -11.007447
O21 2.986112 16.727073 -0.707490
O22 13.834722 8.470152 -1.499907
O23 -0.225820 2.674288 2.469590
O24 12.846712 -1.601645 -0.482869
O25 2.241161 13.676629 -6.959691
O26 -3.400827 2.535805 -13.555825
O27 7.822960 -6.968343 -19.677155
O28 -14.565871 1.149295 4.509111
O29 -0.550826 -4.687703 6.527325
O30 -7.252768 10.915693 -10.474824
O31 2.607638 8.816221 8.463293
O32 -1.037176 2.870360 -2.319916
O33 9.850202 5.777946 -9.708054
O34 -6.363446 2.426451 9.965284
O35 -4.097363 12.555166 7.850451
O36 2.985390 0.823010 2.936853
O37 -12.518416 -14.518851 2.934214
O38 3.746393 -5.968908 2.753021
O39 2.513085 -9.309171 7.717132
O40 -8.040145 2.182023 1.273318
O41 -12.498464 3.905301 0.131015
O42 -2.698725 4.646491 -4.293022
O43 -5.666212 1.927189 -9.922474
O44 4.308093 5.383897 7.919024
O45 6.464875 -6.054774 -9.559786
O46 2.857967 0.397219 9.489558
O47 11.747063 7.432034 -3.241916
O48 -8.405897 9.808997 12.031308
O49 -2.253802 -13.758771 -3.460587
O50 10.471079 5.517947 5.556860
O51 -3.215087 -0.154544 11.923207
O52 2.691950 -13.679503 19.850661
O53 8.481122 -4.104366 2.523334
O54 5.949180 -5.402399 -5.939569
O55 2.036684 -5.944374 6.135962
O56 3.139202 -7.843144 4.620938
O57 -8.931945 -4.170082 4.813096
O58 -7.430077 -11.974610 5.623177
O59 5.272431 4.799191 -1.827091
O60 19.123021 -0.421731 -2.766631
O61 -1.078894 1.619454 7.201109
O62 -14.220039 9.023409 0.118176
O63 -4.526690 -12.454088 -8.520655
O64 -5.024519 -9.425577 -4.734671
H1 -6.461519 3.068324 4.414293
H2 -7.621944 3.694396 5.262864
H3 -4.852762 -0.874273 -5.476601
H4 -5.067625 -2.082326 -6.515815
H5 0.206337 -0.700899 2.253892
H6 1.414661 0.382294 2.023737
H7 17.285034 6.788392 -2.487152
H8 17.047388 8.040835 -1.605243
H9 -5.424359 6.661484 0.176137
H10 -5.889634 5.736094 1.268938
H11 -15.642773 -2.379389 1.975841
H12 -15.782037 -1.024240 2.646031
H13 0.894701 6.592087 -11.639576
H14 2.385732 6.600232 -11.045410
H15 8.799417 -3.270549 9.529614
H16 8.828413 -4.821188 10.004034
H17 -3.310880 -3.256068 -6.659195
H18 -3.783518 -3.218125 -8.100812
H19 4.221439 -1.613461 3.198067
H20 4.429291 -1.114550 4.699265
H21 0.893430 0.127901 -2.766986
H22 -0.311682 1.131256 -2.513708
H23 -3.537712 5.599179 -2.947593
H24 -4.273714 5.383845 -1.689543
H25 -0.220614 11.260806 5.712984
H26 1.354490 11.041532 6.025624
H27 -1.853574 -1.892454 7.317103
H28 -1.157299 -3.032061 6.432384
H29 1.474650 4.853614 -3.809927
H30 0.686055 5.706309 -2.760848
H31 12.386010 3.021744 5.824292
H32 12.494758 3.262179 4.243283
H33 -5.879310 -2.474578 -4.174415
H34 -6.362757 -3.525913 -3.077751
H35 3.787614 0.282143 -1.487643
H36 4.422902 1.022918 -0.065203
H37 10.961837 -6.252030 1.571245
H38 11.277185 -5.073256 0.553320
H39 -15.716420 3.051781 -11.936300
H40 -14.960508 3.215133 -10.642276
H41 2.548180 17.527723 -0.193242
H42 2.238086 16.312918 -1.122237
H43 14.176383 7.849137 -0.846967
H44 13.576918 9.344329 -1.136695
H45 -0.213779 3.051846 1.500460
H46 0.262560 1.910600 2.302400
H47 12.641139 -0.938416 -1.214284
H48 12.855717 -1.024766 0.327860
H49 1.628959 12.895307 -6.912876
H50 3.125058 13.447082 -6.633402
H51 -3.258549 1.524576 -13.316977
H52 -4.348653 2.528980 -14.028245
H53 8.742949 -6.652676 -19.560366
H54 7.743347 -7.925740 -19.371619
H55 -15.417613 0.644560 4.180221
H56 -14.058021 1.270735 3.695126
H57 0.305778 -5.070841 6.350914
H58 -0.600644 -4.918276 7.490809
H59 -7.604941 10.551529 -11.295656
H60 -6.287192 11.089823 -10.360119
H61 2.015337 8.735649 9.258953
H62 3.363842 8.327035 8.772558
H63 -2.047733 2.746411 -2.227524
H64 -0.971652 3.399802 -3.111374
H65 9.340645 5.051005 -10.006868
H66 10.161802 5.601340 -8.740546
H67 -6.925496 1.720424 10.398376
H68 -6.710773 3.171245 10.552027
H69 -4.837429 12.546594 8.665180
H70 -4.097897 13.406012 7.359844
H71 2.618806 1.047162 3.887544
H72 3.276343 -0.091399 2.953794
H73 -13.506025 -14.613325 2.957272
H74 -12.213485 -14.466040 3.871599
H75 3.601674 -6.791401 3.334841
H76 3.709999 -5.160431 3.391196
H77 3.352807 -8.784490 7.400833
H78 2.101926 -9.617426 6.852480
H79 -8.364495 3.119659 0.992735
H80 -8.657488 1.841084 2.018376
H81 -12.711087 4.896589 0.137847
H82 -12.924630 3.517130 -0.693821
H83 -2.332780 5.250615 -4.991033
H84 -3.527767 4.281758 -4.697735
H85 -6.499540 2.027554 -10.538976
H86 -4.964499 2.400919 -10.425927
H87 4.760727 4.997416 8.729699
H88 5.028860 5.871068 7.398156
H89 6.901009 -6.440841 -8.759377
H90 5.460112 -6.006825 -9.432313
H91 2.855156 1.275665 9.039374
H92 2.824082 -0.197015 8.702411
H93 12.252082 7.917768 -2.533095
H94 10.807227 7.642609 -2.994141
H95 -9.245120 9.310279 12.091939
H96 -8.747199 10.715007 11.709669
H97 -2.885617 -13.035678 -3.668328
H98 -1.331915 -13.377387 -3.194493
H99 11.053661 6.462013 5.777837
H100 11.231030 4.867174 5.331652
H101 -3.092698 -0.790430 11.154299
H102 -2.925328 -0.649522 12.726150
H103 2.617926 -14.573791 20.247688
H104 3.453287 -13.603739 19.290620
H105 9.170488 -4.846238 2.420001
H106 7.693539 -4.653391 2.725218
H107 6.595960 -5.890906 -6.520491
H108 6.469482 -4.789668 -5.432478
H109 2.544299 -5.201900 5.794462
H110 2.320839 -6.079974 7.033505
H111 2.529652 -7.182207 5.097924
H112 2.660477 -8.711589 4.662072
H113 -8.685250 -3.248223 4.408147
H114 -8.099023 -4.563888 5.270927
H115 -7.016757 -11.120892 5.282488
H116 -6.620501 -12.504533 5.812293
H117 4.318552 4.604130 -1.500712
H118 5.850732 5.161291 -1.102378
H119 18.975097 -1.357302 -2.815127
H120 18.630643 0.253423 -2.176189
H121 -1.671276 1.621880 6.443947
H122 -1.169663 0.655710 7.556344
H123 -13.497590 9.624525 -0.177905
H124 -14.864687 9.009937 -0.577956
H125 -4.892020 -11.636793 -8.956823
H126 -4.742548 -12.441644 -7.574695
H127 -5.459546 -9.848457 -3.968846
H128 -5.839424 -9.396475 -5.327079
